version 2
run General-0-20181210-17:51:23-18608
attr configname General
attr datetime 20181210-17:51:23
attr experiment General
attr inifile omnetpp.ini
attr iterationvars ""
attr iterationvarsf ""
attr measurement ""
attr network ER_Optimize_One_3
attr processid 18608
attr repetition 0
attr replication #0
attr resultdir results
attr runnumber 0
attr seedset 0
param **.source_waiting_room.interArrivalTime exponential(1.0s)
param **.source_ambulance.interArrivalTime exponential(1.0s)
param **.nurse.serviceTime exponential(8s)
param **.nurse1.serviceTime exponential(8.1s)
param **.nurse2.serviceTime exponential(8.2s)
param **.doc.serviceTime exponential(6.9s)
param **.doc1.serviceTime exponential(7.3s)
param **.Xray.serviceTime exponential(6.8s)
param **.MRI.serviceTime exponential(7.5s)
param **.Surgery.serviceTime exponential(9.1s)
param **.source_waiting_room.numJobs 6600
param **.source_ambulance.numJobs 3400
param **.level_5_queue.capacity 2000
param **.level_3_4_queue.capacity 3000
param **.level_1_2_queue.capacity 2000
param **.nurse3.serviceTime exponential(8.1s)
param **.triage_nurse_ambulance.randomGateIndex bernoulli(0.18)
param **.triage_nurse_waiting_room.randomGateIndex bernoulli(0.14)

vector 0 ER_Optimize_One_3.level_5_queue queueLength:vector ETV
attr interpolationmode sample-hold
attr title "queue length, vector"
vector 1 ER_Optimize_One_3.level_3_4_queue queueLength:vector ETV
attr interpolationmode sample-hold
attr title "queue length, vector"
vector 2 ER_Optimize_One_3.level_1_2_queue queueLength:vector ETV
attr interpolationmode sample-hold
attr title "queue length, vector"
vector 3 ER_Optimize_One_3.waiting_for_doc queueLength:vector ETV
attr interpolationmode sample-hold
attr title "queue length, vector"
vector 4 ER_Optimize_One_3.waiting_for_doc1 queueLength:vector ETV
attr interpolationmode sample-hold
attr title "queue length, vector"
vector 5 ER_Optimize_One_3.waiting_for_doc2 queueLength:vector ETV
attr interpolationmode sample-hold
attr title "queue length, vector"
vector 6 ER_Optimize_One_3.wait_for_work queueLength:vector ETV
attr interpolationmode sample-hold
attr title "queue length, vector"
vector 7 ER_Optimize_One_3.wait_for_work1 queueLength:vector ETV
attr interpolationmode sample-hold
attr title "queue length, vector"
vector 8 ER_Optimize_One_3.wait_for_result queueLength:vector ETV
attr interpolationmode sample-hold
attr title "queue length, vector"
vector 9 ER_Optimize_One_3.wait_for_result1 queueLength:vector ETV
attr interpolationmode sample-hold
attr title "queue length, vector"
vector 10 ER_Optimize_One_3.wait_for_result2 queueLength:vector ETV
attr interpolationmode sample-hold
attr title "queue length, vector"
vector 11 ER_Optimize_One_3.wait_for_work2 queueLength:vector ETV
attr interpolationmode sample-hold
attr title "queue length, vector"
vector 12 ER_Optimize_One_3.sink lifeTime:vector ETV
attr interpolationmode none
attr title "lifetime of arrived jobs, vector"
attr unit s
0	0	0	0
0	83	13.991918149391	1
0	87	15.136798814846	0
0	157	22.269472816965	1
0	191	26.358591947951	2
0	239	32.193981851232	3
0	243	32.559448342389	2
0	281	35.563419864467	3
0	312	37.770613883482	4
0	407	48.443121464444	5
0	521	61.308807583585	6
0	546	63.692009325151	5
0	730	84.447167203051	6
0	746	86.768903341971	5
0	801	91.641260243642	4
0	837	94.234853151534	3
0	842	94.248243706185	4
0	890	98.249164422738	5
0	928	105.229597266897	4
0	963	109.489470697878	5
0	1106	121.819688971697	4
0	1115	122.54238692435	3
0	1221	134.608108777366	2
0	1226	134.812763555028	3
0	1374	148.97888318504	4
0	1395	151.381198965546	3
0	1403	151.594984432791	4
0	1495	162.746253944349	5
0	1505	163.176576763815	4
0	1532	167.699041434807	5
0	1550	168.690664961857	6
0	1556	170.002628042942	7
0	1691	185.329732626519	6
0	1741	189.064647375025	5
0	1770	193.459252423964	6
0	1800	195.399300633842	7
0	1813	196.855676106864	6
0	1872	203.207293014755	7
0	1901	206.248237201219	6
0	1924	208.605805722704	7
0	1937	209.767709118479	8
0	1974	213.964235295299	7
0	1986	214.600796536044	6
0	1991	214.72143407558	7
0	1995	214.92416915727	6
0	2034	218.414190654058	7
0	2047	220.073967604088	6
0	2050	220.596316369256	5
0	2098	226.284699629533	6
0	2137	231.490255604105	7
0	2167	234.243843767825	8
0	2179	235.512699852907	9
0	2210	241.213147395704	10
0	2214	241.393702332018	9
0	2222	242.004176719233	10
0	2231	242.280664403334	11
0	2262	248.354341614954	10
0	2292	250.885760744456	9
0	2343	256.499615938801	10
0	2369	259.554146250803	9
0	2420	262.23531807025	10
0	2496	270.207016180859	11
0	2505	271.194464396846	12
0	2527	272.283764357547	11
0	2532	272.463005367613	12
0	2591	279.875655131755	11
0	2645	286.695071261317	12
0	2701	291.797647825186	11
0	2715	294.809366132608	12
0	2728	295.775619583926	11
0	2864	305.545860999171	10
0	2893	309.299046987983	11
0	3017	323.689784125858	10
0	3020	324.060100173203	9
0	3034	325.103357240443	10
0	3072	329.240534750066	11
0	3073	329.390747181394	10
0	3130	333.323344935878	11
0	3145	336.111152801988	12
0	3157	338.014579980293	13
0	3193	341.852157000976	14
0	3288	351.498558706098	13
0	3297	353.052086536345	12
0	3311	355.080698576258	13
0	3340	358.698902497227	12
0	3393	364.122786670922	11
0	3407	364.83409505891	12
0	3439	368.726288152848	13
0	3491	376.215554363095	14
0	3520	381.691873214499	15
0	3555	384.355838190663	14
0	3569	385.054136379742	15
0	3594	387.742481439097	14
0	3607	388.512173392453	13
0	3668	394.491522796629	12
0	3702	400.374580735636	11
0	3716	402.301137649972	12
0	3720	402.693408220363	11
0	3726	403.538530424812	10
0	3731	403.707231167038	11
0	3793	411.758299958549	12
0	3833	414.921684516623	11
0	3854	417.499047451192	10
0	3875	420.708130247665	9
0	3913	424.441411490928	10
0	3914	424.836808053202	9
0	3944	428.450745702653	8
0	3947	428.493379423295	7
0	3970	432.47825755864	8
0	4008	436.533954113674	7
0	4024	440.548090539951	8
0	4062	446.094858071688	7
0	4073	447.722689956733	8
0	4121	453.017575267819	9
0	4135	454.503288035469	10
0	4153	456.149849222309	11
0	4185	461.988755574846	12
0	4200	463.610693710745	13
0	4209	463.739289745444	14
0	4218	464.292420966564	15
0	4228	465.488440104177	14
0	4292	473.803549616615	13
0	4297	475.060856995517	12
0	4315	477.462969630322	11
0	4382	487.316030106348	12
0	4419	492.243137449594	13
0	4461	496.752836974229	14
0	4470	498.090881155237	15
0	4511	502.251226077341	16
0	4527	504.456398985972	17
0	4578	508.478654458102	16
0	4583	508.624404835282	17
0	4584	508.698267239476	16
0	4638	514.071843083928	17
0	4697	523.260260163263	18
0	4770	532.549731869292	17
0	4784	533.910908040143	18
0	4835	539.440493918901	19
0	4863	540.981912166401	18
0	4878	542.127519724996	19
0	4953	549.731452884059	20
0	5027	561.181634535684	21
0	5109	570.876126077351	22
0	5139	575.423512087961	23
0	5274	590.790457762001	22
0	5289	591.694072653741	21
0	5295	592.295507202571	20
0	5328	594.547969673639	21
0	5385	601.818965450111	22
0	5419	604.873618103997	23
0	5442	607.41046957614	22
0	5509	615.205335916766	21
0	5533	616.752315427832	22
0	5546	619.069286414789	21
0	5668	630.26466871176	20
0	5679	632.101165605956	21
0	5691	633.200653393466	22
0	5701	633.977410880158	21
0	5752	639.37212310343	22
0	5794	643.486224810147	23
0	5847	648.2434970677	24
0	5851	649.21854566169	23
0	5864	650.2127827632	22
0	5888	652.372770311529	23
0	5905	655.468940546736	24
0	5925	656.136518817652	23
0	5937	656.927327767395	22
0	5948	657.243074482405	23
0	5958	658.254697326861	22
0	6089	668.095919886908	23
0	6099	669.803929017348	22
0	6120	673.482440927613	21
0	6126	673.969135654926	20
0	6161	678.971225766995	19
0	6164	679.098132952469	18
0	6247	688.463124371347	19
0	6268	690.900500023753	18
0	6326	695.960631613465	19
0	6327	696.538997812069	18
0	6352	698.175015426601	19
0	6362	698.56491076938	18
0	6381	699.561637018844	17
0	6408	702.976695672617	16
0	6431	706.260196886367	15
0	6441	707.885118724102	16
0	6453	709.427590011499	15
0	6461	709.690544626739	16
0	6495	713.498843345323	15
0	6564	722.385457784817	16
0	6570	722.698456831107	17
0	6598	724.78595628232	16
0	6616	725.562036316676	17
0	6664	730.17019281055	18
0	6698	734.702290948361	17
0	6706	735.384090839304	18
0	6719	737.529709227618	17
0	6776	742.290357357555	16
0	6841	752.503950103133	15
0	6894	756.497881797256	16
0	6897	756.810093071325	17
0	6928	760.763491817376	16
0	6934	761.737949680426	15
0	6945	761.7970827502	16
0	6963	763.665198591698	17
0	7037	774.206022524342	18
0	7056	777.062185356314	17
0	7072	778.344845660273	18
0	7082	780.545575842118	17
0	7100	781.789235744375	16
0	7178	790.542601438575	15
0	7196	792.930237354534	14
0	7253	798.684518068969	15
0	7275	800.473157926157	14
0	7292	800.987116127967	13
0	7297	801.099512453493	14
0	7339	804.632741850895	13
0	7365	807.085733861969	12
0	7392	810.873899581846	11
0	7520	826.310918310235	12
0	7625	841.576516875936	11
0	7676	848.605834639599	10
0	7723	853.416588310133	9
0	7743	855.211797919427	8
0	7825	864.90830387371	7
0	7852	867.931773386116	6
0	7866	868.633658026033	5
0	7875	870.423824194248	4
0	7918	875.684933111662	5
0	7943	879.742542341542	6
0	7975	883.530735953967	5
0	8058	889.024368412012	6
0	8059	889.067126309949	5
0	8215	905.999621440239	6
0	8372	918.510373587467	5
0	8380	919.731852053817	6
0	8420	925.070413304335	5
0	8478	933.122201782687	6
0	8522	935.045478243002	7
0	8554	938.803093450674	6
0	8625	946.66430884566	5
0	8651	949.194998562547	4
0	8707	954.3086715156	3
0	8860	971.177606998475	2
0	8871	971.903086353509	3
0	8902	974.571682067314	2
0	8972	983.938727505321	3
0	8976	984.611913526076	2
0	9050	990.044468230399	3
0	9199	1006.023040341466	4
0	9207	1007.094467599406	5
0	9225	1009.320558625064	6
0	9238	1010.30865200098	7
0	9254	1011.804575736773	8
0	9263	1012.691797546739	9
0	9284	1016.462082036441	10
0	9287	1016.600374918128	11
0	9361	1028.450632217093	10
0	9429	1033.502858052131	9
0	9476	1038.061026941544	8
0	9494	1040.239390235821	7
0	9515	1041.361202663357	8
0	9552	1044.971477751158	9
0	9585	1047.746859212618	10
0	9686	1059.743937171517	9
0	9691	1059.821693797455	10
0	9713	1063.383886245789	11
0	9723	1065.399289784868	10
0	9741	1068.35333637971	9
0	9747	1068.956970628092	8
0	9760	1071.03212927312	7
0	9801	1076.14813130217	6
0	9899	1084.232705359913	7
0	9918	1085.898446570257	6
0	9987	1091.105646388859	7
0	10001	1092.636403719772	8
0	10007	1093.506329604692	9
0	10030	1098.279202990817	8
0	10041	1100.429798368321	9
0	10162	1116.823254948227	10
0	10194	1120.092221534731	9
0	10208	1120.760081480767	10
0	10229	1123.010185450375	11
0	10279	1129.155000827368	12
0	10299	1132.832891817281	11
0	10308	1133.137027186614	12
0	10324	1135.579503858176	11
0	10362	1138.578137547613	12
0	10368	1139.272803391732	13
0	10371	1140.218995109144	14
0	10390	1141.517302403754	15
0	10458	1148.930192717914	16
0	10462	1149.679729520141	15
0	10509	1154.883736537069	14
0	10546	1158.221515716663	15
0	10551	1158.457135951954	14
0	10596	1163.639012046635	13
0	10617	1165.836270324499	14
0	10621	1166.328887055936	13
0	10633	1168.505115180782	12
0	10674	1171.921393585539	13
0	10747	1177.490886742125	14
0	10781	1181.468617578392	13
0	10796	1182.067490091192	14
0	10828	1185.633561145166	15
0	10875	1192.994178169612	16
0	10929	1199.176966282812	15
0	10947	1200.346827704795	14
0	11002	1207.372681537367	13
0	11035	1210.093822421367	12
0	11046	1212.17209897311	13
0	11058	1212.642304822118	14
0	11059	1212.662020405713	13
0	11091	1215.646643266368	14
0	11122	1218.565732194856	13
0	11125	1218.820072952729	12
0	11231	1228.569422273773	13
0	11271	1234.486432759706	14
0	11274	1235.104663839852	15
0	11341	1242.877881983841	16
0	11427	1254.471462486487	17
0	11442	1257.675674506578	18
0	11451	1258.442450713434	19
0	11464	1259.427654201217	20
0	11488	1263.260008600847	21
0	11570	1270.236695272694	22
0	11619	1278.529170755563	21
0	11649	1280.609243304864	22
0	11702	1286.57378152881	23
0	11717	1287.148533610493	24
0	11734	1288.509127005699	25
0	11765	1292.508723198294	24
0	11920	1310.276862398746	25
0	11966	1317.315341853562	24
0	11975	1317.679919859082	23
0	11990	1319.495999702769	22
0	12057	1326.69977487596	21
0	12116	1332.540484500584	22
0	12122	1332.856346850444	23
0	12169	1337.460470497673	24
0	12234	1342.067353616341	23
0	12320	1349.686407582893	24
0	12451	1364.246500146973	23
0	12456	1364.258653623363	24
0	12466	1364.567977807851	23
0	12524	1370.151401465328	24
0	12530	1371.44633057048	23
0	12590	1375.735810987423	24
0	12603	1376.662702786167	23
0	12705	1389.234159025192	24
0	12725	1391.563045959143	23
0	12785	1397.313357296469	24
0	12836	1400.366979156083	25
0	12837	1400.493297201591	24
0	12862	1404.349746424699	25
0	12954	1417.005523347835	24
0	12973	1418.689615061431	25
0	12986	1421.588689451981	24
0	13001	1422.628948383587	23
0	13006	1422.756728777322	24
0	13007	1423.205858708017	23
0	13019	1425.150724579869	22
0	13053	1431.194728720184	21
0	13139	1438.370383112674	20
0	13147	1438.70972130583	21
0	13168	1440.916195897581	20
0	13315	1456.556106948617	19
0	13390	1464.548474239015	18
0	13399	1465.765562981005	17
0	13443	1468.635581424619	16
0	13479	1471.569962990226	17
0	13485	1472.419012435258	18
0	13536	1477.339068567555	19
0	13539	1477.496851446877	20
0	13540	1477.518613548596	19
0	13599	1482.188819814775	18
0	13604	1482.61282352392	19
0	13631	1485.356579805581	20
0	13651	1487.078248088684	19
0	13665	1488.445944709287	20
0	13668	1488.48712720545	21
0	13695	1490.041940213834	22
0	13696	1490.676830119904	21
0	13721	1491.441849388935	22
0	13828	1502.718377907808	23
0	13829	1503.244483186201	22
0	13838	1505.212642581447	21
0	13843	1505.286575928567	22
0	13846	1505.40948709586	23
0	13873	1507.35409311916	22
0	13983	1522.084394463573	23
0	14001	1524.623204565617	24
0	14095	1531.979738612615	23
0	14117	1534.014211862105	22
0	14139	1535.83888217088	23
0	14187	1541.401504429726	24
0	14196	1541.87372938612	25
0	14209	1544.113186791103	24
0	14235	1546.652129934336	25
0	14269	1550.028656811771	24
0	14293	1552.112968784784	23
0	14468	1575.867467927595	24
0	14474	1576.435625307737	25
0	14478	1577.062203643447	24
0	14559	1585.164058952595	23
0	14571	1586.381276547509	22
0	14634	1594.789273270432	23
0	14651	1596.306057289823	24
0	14690	1600.593568639737	25
0	14772	1608.726522052931	24
0	14781	1609.450769219419	25
0	14810	1615.965437794158	24
0	14851	1618.986898889162	23
0	14892	1622.85590637372	24
0	14895	1622.976248076178	25
0	14907	1624.397215734151	24
0	14926	1628.572654455476	25
0	14944	1630.511823947309	26
0	14951	1631.963582933221	25
0	14988	1635.91483723312	26
0	14997	1636.315164261614	27
0	15032	1641.197615510377	26
0	15035	1641.263185641316	25
0	15052	1641.920546971979	26
0	15053	1642.113862626328	25
0	15080	1646.065498567968	24
0	15105	1648.053727452154	25
0	15131	1650.9553230838	26
0	15176	1653.78851532871	27
0	15191	1655.652670195998	28
0	15238	1662.420988721911	27
0	15276	1667.037805527202	26
0	15399	1679.033977943929	27
0	15400	1679.16391411026	26
0	15440	1683.33691612995	25
0	15481	1687.287691892754	26
0	15549	1692.864199941247	27
0	15559	1694.584690980896	26
0	15571	1694.91773287358	27
0	15588	1696.811531871815	26
0	15626	1700.969594804074	25
0	15657	1704.097501666465	24
0	15705	1707.797919311272	25
0	15724	1710.274284361168	24
0	15751	1713.727516710252	25
0	15754	1714.382758845438	26
0	15760	1714.911278416478	27
0	15792	1718.476837162745	28
0	15815	1722.063056680273	29
0	15816	1722.065443382318	28
0	15843	1724.263782402752	27
0	15887	1728.175594212197	28
0	15908	1729.192583355333	29
0	16003	1738.73458751285	30
0	16024	1741.254808400646	31
0	16041	1743.069497167909	32
0	16053	1743.964670729357	33
0	16094	1750.639152062508	34
0	16196	1761.870185489971	33
0	16207	1762.396534014618	34
0	16238	1765.17633629164	35
0	16244	1765.315767211981	36
0	16295	1770.124109556695	35
0	16300	1770.19288377875	36
0	16410	1779.401740973659	35
0	16443	1783.669528075762	34
0	16510	1787.131309767132	35
0	16567	1792.758630940001	36
0	16570	1793.270002002868	37
0	16671	1803.875960097025	38
0	16713	1808.149145325702	39
0	16730	1809.939465758902	38
0	16775	1814.787919977007	39
0	16833	1824.307289870306	40
0	16931	1834.243353075243	41
0	16997	1842.748090263492	42
0	17054	1850.381820689662	41
0	17083	1855.723650388544	42
0	17091	1857.471463698851	43
0	17130	1860.328690962805	44
0	17238	1871.05123652701	43
0	17243	1871.118830150566	44
0	17262	1872.690014739026	45
0	17316	1877.539065027973	46
0	17319	1878.042793561212	47
0	17335	1880.465771987499	46
0	17440	1892.178771952959	47
0	17441	1896.666275643267	46
0	17444	1897.615391338604	45
0	17496	1902.334588157367	46
0	17515	1905.444735967739	45
0	17537	1908.108291528734	46
0	17567	1910.244696106376	47
0	17588	1914.017781883889	46
0	17596	1915.052377722532	47
0	17645	1921.83205481343	46
0	17657	1923.730057677334	45
0	17669	1924.866964008972	44
0	17684	1925.378811718087	43
0	17696	1926.732605254133	42
0	17726	1930.234850700677	41
0	17729	1930.448383750209	40
0	17794	1937.138605258069	39
0	17817	1940.274674218018	40
0	17853	1944.169795988982	41
0	17942	1953.98699682889	40
0	17985	1958.494188391913	41
0	17996	1959.493036962492	40
0	18002	1959.634125652745	39
0	18098	1974.075103373977	38
0	18110	1976.17223822054	37
0	18124	1977.815727257555	38
0	18131	1978.651948130747	37
0	18171	1981.879684329434	36
0	18185	1983.171852858195	37
0	18254	1993.234101029138	36
0	18299	2000.62821305491	37
0	18312	2001.706145448397	38
0	18345	2004.824632544671	39
0	18381	2009.358704852134	40
0	18402	2012.199840702869	39
0	18445	2016.328025822815	40
0	18535	2027.042056615673	41
0	18592	2034.62325962729	40
0	18616	2037.080919640398	39
0	18640	2040.429415021605	38
0	18662	2042.181454368598	39
0	18681	2044.863022306324	40
0	18696	2046.56879198149	41
0	18703	2047.076379552271	42
0	18729	2050.494835874044	43
0	18735	2050.776515980648	44
0	18760	2054.010609188217	45
0	18810	2060.321951210206	46
0	18860	2066.076469604854	45
0	18884	2067.431334144118	46
0	18891	2069.026789323111	45
0	18897	2070.798598667553	44
0	18910	2071.397480704738	43
0	18993	2081.742573764558	42
0	19024	2084.712587011702	41
0	19218	2104.884984130347	42
0	19225	2105.945414368836	41
0	19278	2109.018919003025	42
0	19281	2110.86311187066	43
0	19477	2133.591321779736	44
0	19507	2138.022935129518	45
0	19522	2140.428158177008	44
0	19525	2140.934879484038	43
0	19530	2141.041030818262	44
0	19554	2142.652742556951	45
0	19563	2143.3083412296	46
0	19572	2143.400472715597	47
0	19625	2148.966428029337	46
0	19668	2153.660440399109	47
0	19686	2157.66275752514	46
0	19704	2158.256775472247	45
0	19731	2160.451955449574	44
0	19822	2170.19815469739	45
0	19848	2176.597427839318	44
0	19911	2182.349774760498	43
0	19969	2189.517703934466	44
0	19975	2190.960643008486	45
0	20079	2198.97539302987	44
0	20087	2199.357401735383	45
0	20090	2201.069371446049	46
0	20101	2202.594478783289	45
0	20162	2207.843652928246	46
0	20192	2210.07485216949	47
0	20200	2210.958826495439	48
0	20204	2213.353524142875	47
0	20295	2222.322339462639	46
0	20301	2222.986718776316	45
0	20348	2226.720416197047	46
0	20373	2229.128754135222	47
0	20462	2236.070965249353	46
0	20476	2239.04600670631	47
0	20508	2241.20732803156	48
0	20564	2248.689498218341	49
0	20585	2250.312938386164	50
0	20620	2252.561030395075	51
0	20623	2252.596232924943	52
0	20624	2253.706138238226	51
0	20632	2254.092364116664	52
0	20761	2268.934403993576	51
0	20766	2269.021721659736	52
0	20785	2270.01651180975	51
0	20813	2272.406904690386	52
0	20814	2272.457158434825	51
0	20825	2272.964061554454	52
0	20841	2276.527214447125	51
0	20873	2281.633977469486	52
0	20876	2282.10655559297	53
0	20880	2282.203973276323	52
0	20914	2285.975227460098	51
0	20917	2286.131936243665	50
0	20922	2286.461267133627	51
0	20937	2289.040827653625	50
0	20952	2291.080534143905	49
0	20963	2291.735843125074	50
0	20992	2295.733399851642	49
0	21007	2296.536706866512	50
0	21050	2300.940003211205	51
0	21181	2314.333285242118	50
0	21214	2318.378065032346	49
0	21219	2318.408124243339	50
0	21261	2323.000357319842	51
0	21276	2324.824633218167	52
0	21311	2328.195641225528	53
0	21336	2330.199534341205	54
0	21400	2337.869672387026	53
0	21408	2338.991980538206	54
0	21439	2342.132813758849	53
0	21512	2350.747520493707	54
0	21527	2353.113209478477	53
0	21574	2357.560651044588	52
0	21610	2360.235999571353	53
0	21611	2360.441885874089	52
0	21685	2368.384802556365	51
0	21690	2368.493331997314	52
0	21733	2372.312873339263	53
0	21830	2382.393678296372	54
0	21840	2383.400086787704	53
0	21913	2389.194601007325	54
0	21920	2389.656030822839	53
0	21931	2391.119348336876	54
0	21934	2391.422980839834	55
0	22014	2398.73701421603	56
0	22032	2400.24515015957	57
0	22121	2410.723299060502	56
0	22127	2411.022549830632	55
0	22142	2411.93539093354	54
0	22147	2412.165222831388	55
0	22276	2428.754468366929	56
0	22446	2444.200953937769	57
0	22516	2449.368690553122	56
0	22765	2475.127089346193	55
0	22783	2476.570482655895	56
0	22860	2483.233491277036	57
0	22872	2483.974290050845	58
0	22890	2485.738241355555	59
0	22903	2487.097057927174	58
0	22958	2492.178849220385	57
0	23014	2500.374482021141	58
0	23050	2503.767634916753	57
0	23064	2505.432938499853	58
0	23067	2505.454220361543	59
0	23125	2509.39073867596	58
0	23133	2509.807742745569	59
0	23290	2529.979389723436	58
0	23298	2531.223685036186	59
0	23340	2534.93053756029	60
0	23350	2536.940336742321	59
0	23369	2538.266204088593	60
0	23435	2544.731545726987	61
0	23519	2552.603106518401	60
0	23604	2559.955098700397	59
0	23619	2561.317875741744	60
0	23687	2575.368848849708	61
0	23715	2578.024880785816	62
0	23724	2578.837885605365	61
0	23736	2580.384203129524	62
0	23775	2583.816369362146	63
0	23791	2585.753209296047	64
0	23816	2587.497649702743	65
0	23857	2591.403992419651	66
0	23861	2591.887068860512	65
0	23867	2592.4078652744	64
0	23882	2595.189001933311	63
0	23895	2597.203142804631	64
0	23936	2599.886365343557	63
0	24011	2608.353446523843	64
0	24041	2610.721132033224	65
0	24062	2613.684697565164	66
0	24097	2617.911234517668	65
0	24163	2629.396207489907	66
0	24212	2634.621375137252	67
0	24281	2641.374272094199	68
0	24289	2642.503976340737	69
0	24307	2643.950501834754	70
0	24342	2646.878957130591	71
0	24345	2647.262139763023	72
0	24354	2648.489041677816	73
0	24379	2650.000074420283	72
0	24433	2654.159388466463	71
0	24453	2655.149893815276	72
0	24496	2660.182087471936	71
0	24508	2662.269433952195	70
0	24550	2665.531162683909	71
0	24571	2666.60425016441	72
0	24657	2677.192262893148	73
0	24674	2679.555376141225	72
0	24828	2700.06033548425	73
0	24846	2701.943903011241	72
0	24926	2710.224586280449	73
0	24974	2714.284777643479	72
0	25030	2719.666892283904	71
0	25193	2738.959298259638	70
0	25254	2745.056431087094	69
0	25266	2746.108137229326	68
0	25269	2746.442689971326	67
0	25405	2760.86053801743	68
0	25437	2763.180290493934	69
0	25444	2763.933176792771	68
0	25449	2764.022899921777	69
0	25464	2765.717078043865	70
0	25548	2777.989164736334	71
0	25586	2779.998138718898	72
0	25679	2791.163520971522	71
0	25706	2795.12564500994	70
0	25726	2797.168125259133	71
0	25735	2799.350103780247	72
0	25766	2803.149493528729	71
0	25798	2806.690164814504	70
0	25815	2808.309745874692	69
0	25818	2808.667350394929	68
0	25828	2810.234844868274	69
0	25862	2813.487686817428	70
0	25867	2814.304500065088	69
0	25999	2827.407483586554	68
0	26002	2827.747991637617	67
0	26049	2832.580628838944	68
0	26095	2837.338066555954	69
0	26214	2848.15363671472	68
0	26229	2849.055801516713	69
0	26232	2849.177881765919	70
0	26281	2854.130635146909	69
0	26290	2854.616320193056	68
0	26336	2859.037094268803	67
0	26381	2863.64172701146	66
0	26404	2866.344561152978	67
0	26416	2866.989302291548	68
0	26449	2872.12661729868	69
0	26464	2872.559159292412	70
0	26483	2875.040806314215	69
0	26486	2876.052517392478	68
0	26518	2882.435709356858	69
0	26543	2885.513943413381	70
0	26561	2888.065096074042	69
0	26566	2888.412524811059	70
0	26605	2891.881476827246	69
0	26689	2902.908060282637	70
0	26714	2905.937615292051	71
0	26741	2908.359138923386	70
0	26766	2911.152229782371	71
0	26781	2912.767188332561	70
0	26798	2913.627025557523	71
0	26812	2916.698180543432	70
0	26916	2928.817707459053	69
0	26957	2934.494057666332	68
0	26971	2935.273941097414	69
0	27007	2939.710852895393	70
0	27067	2944.530165327711	71
0	27073	2944.565089010775	72
0	27077	2944.679671957323	71
0	27099	2945.798503236655	72
0	27149	2949.62537020568	73
0	27312	2966.483574752247	74
0	27341	2970.021714404203	75
0	27361	2973.582165134556	76
0	27453	2981.988400323818	75
0	27464	2983.015318279443	76
0	27467	2983.092501249897	77
0	27524	2988.108642634454	78
0	27528	2988.731067179208	77
0	27677	3006.119686194861	78
0	27725	3010.814274744297	79
0	27750	3015.012700743296	80
0	27788	3021.264516014775	79
0	27800	3022.351066162451	78
0	27843	3025.538032445154	79
0	27844	3026.499371758246	78
0	27867	3028.43108822264	79
0	27894	3032.438816305095	80
0	27917	3035.007435577773	79
0	27953	3040.00638611505	80
0	27962	3040.81427286141	81
0	28012	3046.904701517504	82
0	28098	3055.091100655429	81
0	28150	3059.884430569551	80
0	28153	3060.031087337503	79
0	28164	3061.25257741129	80
0	28242	3069.377032284744	79
0	28266	3070.424907948724	80
0	28290	3073.760861718746	81
0	28291	3073.98027882632	80
0	28309	3076.631316981145	79
0	28315	3077.416322817633	78
0	28361	3081.004958670453	77
0	28394	3084.313453946012	76
0	28415	3084.792153106485	77
0	28434	3087.37331432291	76
0	28595	3104.953541181345	77
0	28682	3115.320124181668	76
0	28709	3117.348339687657	77
0	28728	3120.912105273016	76
0	28757	3123.136466827208	77
0	28798	3129.235437365308	76
0	28862	3136.732861889547	75
0	28986	3147.610833927556	74
0	29059	3156.743736052752	75
0	29089	3159.033192365646	76
0	29120	3161.580224739937	75
0	29149	3163.052266919101	76
0	29184	3165.606841480399	75
0	29218	3167.924212307417	76
0	29224	3168.913532778035	77
0	29253	3170.625829593212	78
0	29278	3172.312401839273	77
0	29400	3184.383785761585	78
0	29418	3185.627264193097	77
0	29473	3193.210174714029	76
0	29564	3203.467504960227	77
0	29568	3203.900213778565	76
0	29576	3204.766525336873	77
0	29636	3209.332869966877	76
0	29641	3209.7920162585	77
0	29648	3210.729663761533	76
0	29687	3214.516566307727	75
0	29747	3227.564764674867	76
0	29769	3230.702442731362	75
0	29864	3238.249418954215	76
0	29870	3238.842841331605	77
0	29874	3240.23991735718	76
0	29963	3249.548684885102	77
0	30006	3254.860105168048	76
0	30031	3256.576900925573	75
0	30040	3257.590235155116	74
0	30043	3257.970087219291	73
0	30069	3261.054504509914	74
0	30070	3261.324311935592	73
0	30086	3262.822625647403	72
0	30145	3268.701255862262	71
0	30154	3269.398402989794	70
0	30190	3273.110381673483	69
0	30195	3273.166103859266	70
0	30214	3274.938456664208	69
0	30220	3275.039024048264	68
0	30406	3292.30585463935	69
0	30422	3294.34455074839	68
0	30427	3294.650844054549	69
0	30448	3296.554313641844	70
0	30464	3298.002555202895	71
0	30494	3301.064448693506	72
0	30509	3303.26708585681	73
0	30528	3304.98867581486	72
0	30574	3308.346637969312	73
0	30579	3308.889036187069	72
0	30667	3316.991982418277	73
0	30670	3317.435206010022	74
0	30706	3319.87060558652	75
0	30774	3327.752542764868	74
0	30785	3328.345308080389	75
0	30821	3332.645041086644	74
0	30824	3332.834920981228	73
0	30856	3335.506168924656	74
0	30880	3339.857780864609	75
0	30889	3341.843373103309	76
0	30890	3341.989079915195	75
0	30916	3344.419619718293	76
0	30990	3352.136581752642	75
0	31006	3354.206144101619	74
0	31022	3354.807785730146	75
0	31039	3356.641811380521	74
0	31088	3361.403376498153	75
0	31099	3363.789142696605	74
0	31102	3363.993988324311	73
0	31110	3364.601387601351	74
0	31131	3369.252717504725	75
0	31149	3371.896638280134	76
0	31185	3378.180433069699	77
0	31201	3379.385096997995	78
0	31208	3380.537478471928	79
0	31211	3380.565934065889	80
0	31214	3381.153800063296	81
0	31215	3382.250234353904	80
0	31247	3384.134662532798	81
0	31320	3393.228684063916	80
0	31334	3394.399313522896	81
0	31353	3396.867940545146	80
0	31368	3402.300594740768	81
0	31369	3402.637183023154	80
0	31418	3412.174189266295	81
0	31444	3414.955219134456	82
0	31465	3419.958343277191	81
0	31512	3427.016501446411	82
0	31578	3437.639051327308	83
0	31588	3439.266085069367	82
0	31596	3439.823391406118	83
0	31601	3440.621720287936	84
0	31636	3445.587989480881	83
0	31641	3446.222066417329	84
0	31644	3447.69486368067	85
0	31650	3450.000477886463	86
0	31678	3453.879230003464	85
0	31683	3454.181322177594	86
0	31704	3458.862784853432	87
0	31753	3466.374835403631	88
0	31806	3477.10384114567	89
0	31823	3480.13400209936	88
0	31848	3485.572670716522	87
0	31853	3485.68113010125	88
0	31884	3492.396058440711	87
0	31887	3493.052019919739	86
0	31922	3500.979231736975	85
0	31955	3505.099849333411	86
0	31962	3507.484741919516	85
0	32049	3522.631186136228	84
0	32058	3523.784721271915	85
0	32059	3523.801825019858	84
0	32126	3533.425788395084	85
0	32140	3535.737207071647	84
0	32151	3537.010923754492	85
0	32157	3537.137856820505	86
0	32193	3541.776877402916	87
0	32222	3546.649450683894	88
0	32244	3551.079588477871	87
0	32265	3555.194786002744	86
0	32279	3556.55284677609	87
0	32308	3558.546177079555	88
0	32309	3558.729846874986	87
0	32378	3569.248629019446	88
0	32385	3569.733927855593	87
0	32455	3580.841843871935	88
0	32462	3581.677454433144	89
0	32481	3583.345708673099	90
0	32500	3586.419851718457	89
0	32503	3586.921170944365	88
0	32517	3587.816359104441	87
0	32556	3595.463308485969	88
0	32573	3600.049655411655	89
0	32576	3600.518223801322	90
0	32682	3619.984121305202	91
0	32683	3621.899815601846	90
0	32686	3622.696139543301	89
0	32708	3625.012883537653	90
0	32822	3640.66142744741	89
0	32828	3642.670530027744	88
0	32870	3646.344103501051	89
0	32914	3652.47739091754	88
0	32932	3653.516622725417	89
0	32941	3654.47164344527	88
0	32957	3656.978435016087	87
0	32967	3657.166749419627	88
0	32995	3662.809893199677	87
0	33013	3664.091018977225	86
0	33037	3667.786124793512	85
0	33040	3668.179336332665	84
0	33109	3674.518243844496	83
0	33183	3685.671109845553	82
0	33212	3687.959885256543	83
0	33213	3688.952923391719	82
0	33226	3690.896192888333	83
0	33227	3690.925815017034	82
0	33253	3694.449310649945	83
0	33260	3696.263498313922	82
0	33281	3698.201189469427	83
0	33286	3698.67854419384	82
0	33297	3700.458863726911	83
0	33303	3701.250447691757	84
0	33339	3705.256333737969	83
0	33362	3708.418278915013	84
0	33371	3710.448727602262	85
0	33391	3713.450033140978	86
0	33409	3716.711715307427	85
0	33609	3748.857739158352	86
0	33612	3749.126333830826	87
0	33678	3759.749753184911	86
0	33726	3766.702497198877	87
0	33766	3773.463557199727	88
0	33802	3776.531027085437	87
0	33805	3777.219902348779	86
0	33848	3784.129562234164	85
0	33872	3788.8128384441	84
0	33908	3796.342590865725	83
0	33913	3796.813207038841	82
0	33986	3807.57176078023	81
0	33992	3808.841237895381	80
0	34013	3814.18282417042	81
0	34033	3815.80671694821	82
0	34059	3819.120142476604	83
0	34069	3823.655407802674	82
0	34086	3825.785313050316	83
0	34096	3828.250535173086	82
0	34134	3833.708325064741	81
0	34178	3840.923835514393	80
0	34183	3841.740645826793	81
0	34201	3847.069902648963	80
0	34272	3858.552388735382	81
0	34313	3863.484887661715	82
0	34337	3866.359777295981	83
0	34344	3866.994446765679	84
0	34348	3867.237452660418	83
0	34356	3868.347943076372	84
0	34378	3871.798723559381	83
0	34387	3873.271357019612	84
0	34442	3885.230992586904	85
0	34443	3885.350898677736	84
0	34534	3899.95628555329	85
0	34540	3901.719220671597	86
0	34661	3923.073642585703	85
0	34668	3924.421789070656	84
0	34705	3929.991998056722	83
0	34711	3930.226034126517	82
0	34739	3935.409850777858	83
0	34745	3937.178768609877	82
0	34750	3937.744166941566	83
0	34757	3938.103316692571	82
0	34787	3940.532171731785	83
0	34791	3940.936904132099	82
0	34845	3944.846000865563	81
0	34860	3948.475289835244	82
0	34863	3948.607457658356	83
0	34906	3955.014561068375	84
0	34921	3956.833658120504	85
0	34931	3957.49667932805	86
0	35031	3971.654303359438	87
0	35048	3979.89039074479	86
0	35053	3980.210709572458	87
0	35061	3981.880621084251	86
0	35124	3989.530338017498	87
0	35145	3992.375521891393	88
0	35146	3993.140273369742	87
0	35168	3994.97904601761	88
0	35175	3997.240134863316	87
0	35198	4003.99395902899	88
0	35222	4007.857897402842	89
0	35227	4010.965147233522	88
0	35249	4013.118058585219	89
0	35289	4018.432971714926	88
0	35292	4018.74713286666	87
0	35313	4021.052175884158	88
0	35317	4022.399417316642	87
0	35337	4023.717348055193	88
0	35338	4024.254653360894	87
0	35382	4032.558345458292	88
0	35386	4033.812399412413	87
0	35450	4047.215816769874	86
0	35468	4048.130170532888	87
0	35496	4053.762127486362	86
0	35504	4053.992461293145	85
0	35512	4054.160448958138	86
0	35520	4056.058175602857	87
0	35546	4060.392223741071	88
0	35569	4068.429703074533	87
0	35590	4073.094601289926	86
0	35623	4077.016028875018	85
0	35639	4077.869877513273	84
0	35659	4081.265318528952	85
0	35663	4081.991176260533	84
0	35678	4084.125247240922	85
0	35689	4085.410562532061	84
0	35724	4091.109910740635	85
0	35737	4091.821510871819	86
0	35748	4093.007384933392	87
0	35767	4094.808784646676	88
0	35792	4099.358803136942	87
0	35816	4101.642828891474	86
0	35844	4106.409892146242	85
0	35849	4106.633754731251	86
0	35906	4116.165086457758	87
0	35946	4123.213081111017	88
0	35963	4124.56398805179	87
0	36007	4131.558487536929	86
0	36018	4132.228471285415	87
0	36048	4143.890981190348	86
0	36056	4144.867658516526	85
0	36061	4145.527794479866	86
0	36075	4146.973249403788	85
0	36087	4148.740425423541	84
0	36098	4150.578580314804	85
0	36101	4151.096289489876	86
0	36110	4152.688822105918	87
0	36113	4153.404025406255	88
0	36119	4156.554784560823	89
0	36120	4156.91069657868	88
0	36125	4157.469380825285	89
0	36173	4168.303825410333	88
0	36201	4172.472484162773	87
0	36213	4176.452004809295	86
0	36221	4177.837954104793	87
0	36227	4178.688593763251	88
0	36247	4182.854553985176	89
0	36257	4184.948095383202	88
0	36291	4189.091973622594	87
0	36299	4189.712632841873	86
0	36305	4190.732856791288	85
0	36320	4192.952287198026	86
0	36344	4199.552092428609	85
0	36358	4202.013862304437	86
0	36361	4203.15509350489	87
0	36411	4210.058405122973	86
0	36414	4210.261734941052	85
0	36448	4214.779454924564	86
0	36468	4217.756393550611	87
0	36474	4218.990664811893	88
0	36480	4220.01446092286	89
0	36483	4221.25904864615	90
0	36494	4223.034832956375	91
0	36512	4225.884085471857	92
0	36535	4231.458968807553	93
0	36536	4231.487069049128	92
0	36550	4233.975823801046	93
0	36553	4234.403763291445	94
0	36563	4237.312125542221	93
0	36589	4241.524956314479	94
0	36603	4243.194527950733	95
0	36614	4244.051632126578	96
0	36628	4247.342183492335	95
0	36711	4259.417280133511	94
0	36717	4261.500417708103	93
0	36728	4262.321552297345	94
0	36746	4264.82310685632	93
0	36791	4272.462649059237	92
0	36803	4274.273719581915	93
0	36836	4282.526332642883	92
0	36843	4282.884595052222	91
0	36858	4285.841530709588	90
0	36867	4286.176064435619	89
0	36870	4286.368263774314	88
0	36969	4300.60871049271	87
0	36983	4302.960437352267	88
0	36995	4303.343931196495	87
0	37014	4307.731088994916	88
0	37049	4310.666021712155	89
0	37061	4313.495903646223	90
0	37088	4316.622131053903	91
0	37111	4319.585951296991	92
0	37132	4322.008358377585	93
0	37133	4322.208198262692	92
0	37220	4331.07421213801	91
0	37235	4333.191992857337	90
0	37244	4334.604359077619	89
0	37285	4342.06141021185	90
0	37291	4342.680685952673	91
0	37311	4344.997448491842	92
0	37331	4347.528732223671	93
0	37393	4357.198443156793	94
0	37405	4358.256410883337	93
0	37477	4368.391205594644	94
0	37483	4369.954737801943	95
0	37510	4374.293197360659	94
0	37513	4374.378453599182	93
0	37541	4376.511688050339	94
0	37552	4377.900789502806	95
0	37553	4378.257968244976	94
0	37586	4383.214415577479	95
0	37608	4388.765562201887	96
0	37623	4395.314863102383	97
0	37629	4395.791940433386	98
0	37639	4398.96684147878	97
0	37659	4400.358183481362	98
0	37660	4401.013832134042	97
0	37753	4416.187365919376	96
0	37758	4416.209037544578	97
0	37768	4417.20846476457	96
0	37801	4422.567086525973	95
0	37810	4424.365811411978	94
0	37813	4425.37171777637	93
0	37816	4426.96414884148	92
0	37828	4428.573927070758	91
0	37833	4428.683932533464	92
0	37860	4432.866793200482	91
0	37881	4438.541232176391	90
0	37886	4439.382427380791	91
0	37957	4447.148534684898	92
0	37968	4448.757044709061	93
0	38058	4465.681951914725	94
0	38117	4478.265324795387	93
0	38122	4478.632998013887	94
0	38139	4484.196558065172	95
0	38162	4487.971419516751	96
0	38166	4488.457519746459	95
0	38175	4489.343522121817	96
0	38193	4490.674129660234	97
0	38224	4494.472694771056	98
0	38254	4496.858846789842	99
0	38274	4501.73214338634	98
0	38285	4503.625693053835	99
0	38295	4505.820753434752	100
0	38296	4506.035086022119	99
0	38306	4507.655722999288	98
0	38309	4508.492455830784	97
0	38406	4523.090829428859	98
0	38433	4524.598504997833	99
0	38443	4526.373418887269	100
0	38471	4530.940933896702	99
0	38480	4531.905602749854	98
0	38503	4535.935043397278	97
0	38529	4539.03294676336	98
0	38552	4542.587005342618	99
0	38581	4550.007810026579	100
0	38584	4551.364726684165	101
0	38606	4555.008336761572	100
0	38609	4555.537322148968	99
0	38622	4556.761503028327	100
0	38641	4558.422861742404	99
0	38714	4569.890829134781	100
0	38754	4574.335038079995	99
0	38800	4580.234216662757	100
0	38841	4587.015767645688	99
0	38865	4591.227369584745	100
0	38917	4598.30680330666	99
0	38962	4603.889689455783	100
0	38982	4608.366797243967	99
0	38985	4608.370688585387	98
0	39031	4618.13685227503	99
0	39059	4623.017841754245	98
0	39065	4625.039017729784	97
0	39088	4629.012133785936	96
0	39091	4629.093452662613	95
0	39114	4636.836342293649	96
0	39137	4641.649393334391	97
0	39152	4643.182829281965	98
0	39166	4644.502332525068	99
0	39207	4652.799480095673	100
0	39243	4658.991814912141	101
0	39263	4662.496513318153	100
0	39268	4663.076615471283	101
0	39307	4667.622326856058	102
0	39316	4670.169053596033	103
0	39346	4675.522644917852	102
0	39351	4676.726369422783	103
0	39352	4676.79678821545	102
0	39359	4677.331997839396	103
0	39373	4680.492052317095	102
0	39394	4682.695868504364	101
0	39407	4685.261074484017	102
0	39425	4688.222098331562	103
0	39434	4692.179014441511	104
0	39449	4693.41907434586	105
0	39477	4695.866492976562	106
0	39504	4699.027261833818	107
0	39507	4699.040506901175	108
0	39520	4702.165354810264	107
0	39554	4708.342753751166	108
0	39576	4713.42826629177	109
0	39586	4713.81131649428	110
0	39605	4715.899529908841	109
0	39630	4718.69593296258	110
0	39655	4721.969786365636	111
0	39700	4727.47472254849	110
0	39709	4728.692472454156	109
0	39712	4728.715501666716	108
0	39745	4734.334468832292	107
0	39780	4741.575416573083	108
0	39807	4746.651135814847	107
0	39815	4747.758610169205	108
0	39855	4753.899861454493	107
0	39881	4757.102551106916	108
0	39918	4765.126180234294	107
0	39923	4766.907773129861	108
0	39927	4767.646136232569	107
0	39961	4773.524932844852	106
0	39988	4777.284552870323	107
0	39999	4778.232292278752	106
0	40015	4781.335627975503	105
0	40018	4781.475250686164	104
0	40023	4781.516522901328	105
0	40036	4782.98184604214	104
0	40106	4796.364868876678	103
0	40115	4797.074404531034	102
0	40139	4801.52839236119	103
0	40168	4808.816173763332	104
0	40182	4811.839438212343	103
0	40193	4813.730613146516	104
0	40200	4816.536319646218	103
0	40203	4816.712743461621	102
0	40206	4816.81145819083	101
0	40246	4822.178480244615	102
0	40249	4822.477502157931	103
0	40297	4830.057551846302	104
0	40301	4831.230972955756	103
0	40334	4835.382145258089	104
0	40410	4845.78064794616	105
0	40432	4850.687122944036	104
0	40440	4851.073978665279	105
0	40475	4860.006124358999	104
0	40485	4862.261494456097	105
0	40489	4862.885960106674	104
0	40505	4866.668757681214	103
0	40519	4867.259010744803	104
0	40526	4868.73771394058	103
0	40529	4869.767620189892	102
0	40537	4870.562725218718	103
0	40567	4873.948885038234	102
0	40584	4875.772210886255	101
0	40587	4875.90954493161	100
0	40590	4876.259523888314	99
0	40593	4876.47958879217	98
0	40622	4881.943629063812	99
0	40651	4884.30015382354	100
0	40693	4891.777988887713	99
0	40787	4907.64539945489	100
0	40839	4919.812811163675	99
0	40891	4928.752679639932	100
0	40897	4929.366219649526	101
0	40919	4931.995193207174	100
0	40927	4933.03875288519	101
0	40943	4936.850476088675	102
0	40962	4939.17668914238	103
0	40979	4940.981292649114	104
0	40992	4942.994670720019	103
0	41055	4954.857554602736	104
0	41076	4958.242679320634	105
0	41085	4959.474312820597	106
0	41098	4961.505535031524	105
0	41104	4962.620564431961	104
0	41110	4963.121277168811	103
0	41115	4963.215179532393	104
0	41133	4966.0799506499	105
0	41172	4972.639645056555	104
0	41263	4985.825287405422	105
0	41289	4990.488718065885	104
0	41316	4994.859533800695	103
0	41321	4996.05712490406	104
0	41361	5002.078401060563	105
0	41376	5007.23237585159	106
0	41427	5016.526571354195	107
0	41430	5020.312432266718	108
0	41436	5021.175560836643	109
0	41461	5027.619860330365	110
0	41467	5029.363550986431	111
0	41486	5031.523530741701	112
0	41539	5037.443903068017	111
0	41557	5039.350439768435	112
0	41587	5043.441963819294	113
0	41608	5049.700940784915	114
0	41660	5055.762828478414	113
0	41688	5060.23388307418	114
0	41748	5067.26474200653	113
0	41760	5068.521297839093	114
0	41767	5069.649236328223	113
0	41833	5078.140059429683	112
0	41853	5081.367627847083	111
0	41864	5082.718316035793	112
0	41876	5084.246370961355	113
0	41901	5085.322253571683	114
0	41902	5085.727097396948	113
0	41916	5086.779389072851	114
0	41977	5104.03409481938	113
0	42040	5116.352807516073	114
0	42074	5123.422028192375	113
0	42085	5124.846301672018	112
0	42103	5126.312371950638	111
0	42106	5127.357948088208	110
0	42114	5128.556827167039	111
0	42115	5128.731210890817	110
0	42124	5129.73856114811	109
0	42161	5135.41119493807	108
0	42164	5135.682912843351	107
0	42177	5136.43382844302	106
0	42235	5146.971858480252	105
0	42249	5148.402240210336	106
0	42253	5148.727056838935	105
0	42258	5148.765130742408	106
0	42288	5153.034072567447	107
0	42310	5156.034146786779	106
0	42316	5156.387170992721	105
0	42330	5158.732507922052	106
0	42334	5159.471149317493	105
0	42439	5174.702006604915	104
0	42451	5178.200163224886	103
0	42459	5181.146451425235	104
0	42460	5181.477190908784	103
0	42499	5186.07171779678	102
0	42519	5191.136730836593	103
0	42523	5191.624742475076	102
0	42529	5192.194793309493	101
0	42543	5194.458397558272	102
0	42565	5197.089160819222	103
0	42589	5202.628952968578	102
0	42647	5217.228171221472	103
0	42648	5219.015235724103	102
0	42675	5220.194657213515	103
0	42727	5228.046088869892	102
0	42748	5233.196872357415	103
0	42765	5235.352952912084	104
0	42768	5235.410744156369	105
0	42790	5241.34947282633	106
0	42801	5244.220302574654	107
0	42805	5245.334518614777	106
0	42818	5247.957036295619	105
0	42821	5248.01542721471	104
0	42829	5249.777896346223	105
0	42879	5259.907335091646	104
0	42898	5262.6617187618	105
0	42923	5265.237619261072	106
0	42968	5273.846482396012	105
0	42976	5274.683312538049	106
0	43095	5293.70009273646	105
0	43119	5296.96076213954	106
0	43155	5302.82625091268	107
0	43158	5302.885425482281	108
0	43190	5307.332812294274	109
0	43199	5308.63779793619	110
0	43236	5314.962580082268	111
0	43342	5326.463300002123	110
0	43400	5331.292642037884	109
0	43426	5334.265184678296	110
0	43453	5336.810485044646	109
0	43456	5337.017417874108	108
0	43473	5339.392551584899	109
0	43486	5340.324025250297	110
0	43493	5341.457934062035	109
0	43533	5348.266387574174	108
0	43549	5351.009918822018	107
0	43557	5352.569634535416	108
0	43633	5365.641645265104	109
0	43634	5366.250795318581	108
0	43667	5373.747936395953	109
0	43668	5373.961008906549	108
0	43684	5377.24286569653	107
0	43703	5380.19987737746	108
0	43736	5385.810721222519	109
0	43758	5388.060377278146	110
0	43812	5395.005546079306	109
0	43818	5395.328901763083	108
0	43842	5399.538515391934	107
0	43884	5409.238483343167	106
0	43887	5409.240540083259	105
0	43924	5415.058453672427	104
0	43929	5415.144866585146	105
0	44001	5425.302425050635	106
0	44004	5425.332940983783	107
0	44015	5427.375727254142	108
0	44025	5428.422429953326	107
0	44052	5431.45513776718	106
0	44118	5448.137838195989	105
0	44181	5457.09152148417	106
0	44235	5469.440447273319	107
0	44275	5477.895915393641	106
0	44360	5489.293505083608	107
0	44372	5490.081426553077	108
0	44389	5491.560692752787	107
0	44403	5495.147640022268	108
0	44413	5496.312470310871	107
0	44447	5503.579549138481	108
0	44486	5507.878449786971	109
0	44489	5508.238917300567	110
0	44490	5508.282744288543	109
0	44496	5509.29205366487	108
0	44517	5513.194511899656	107
0	44528	5517.146375110299	106
0	44531	5517.450827980615	105
0	44568	5527.243279533349	104
0	44574	5527.656632243347	103
0	44609	5533.570713321058	104
0	44627	5535.446093594526	105
0	44696	5541.279041989812	106
0	44755	5550.416183718552	107
0	44778	5558.059512294342	108
0	44796	5559.624497858312	109
0	44814	5564.448604232539	108
0	44823	5565.00223386691	107
0	44852	5570.965402779486	108
0	44915	5581.448257404455	107
0	44920	5582.213824630118	108
0	44935	5584.612103570274	109
0	45044	5607.628478160179	108
0	45062	5611.911131696355	109
0	45099	5617.975602979635	108
0	45109	5620.511189192497	107
0	45119	5621.667443092889	108
0	45125	5621.813759111289	109
0	45140	5623.3705317171	108
0	45178	5630.973959753575	107
0	45184	5631.333375445481	106
0	45220	5639.924451077017	105
0	45225	5640.5533398334	106
0	45252	5648.134860826756	105
0	45282	5656.246843473023	104
0	45290	5659.255181852035	105
0	45300	5661.9066321709	106
0	45328	5668.791489407208	105
0	45334	5669.46007316989	104
0	45339	5670.02810903258	105
0	45417	5684.235972089649	104
0	45473	5694.351862160364	105
0	45480	5695.689139200635	104
0	45527	5701.0577261964	105
0	45533	5701.475295170726	106
0	45554	5704.119390983687	107
0	45587	5710.778680048734	108
0	45624	5716.379787844557	109
0	45652	5720.334868516563	110
0	45671	5724.335235019148	111
0	45689	5728.015344655364	112
0	45729	5732.546215036896	111
0	45766	5737.326969468753	112
0	45784	5741.332594932351	111
0	45802	5743.580732007816	110
0	45849	5749.92871466259	109
0	45866	5752.648758553823	110
0	45902	5756.817652050146	109
0	45908	5757.397778171412	108
0	45941	5761.441887430742	109
0	45951	5763.645977215354	108
0	46004	5775.288175569534	107
0	46025	5778.214996237222	106
0	46060	5782.909133631556	105
0	46067	5783.475345991061	104
0	46079	5785.506612661482	103
0	46121	5792.202631426903	102
0	46124	5792.70258871252	101
0	46138	5793.742967640843	102
0	46160	5796.228467940243	101
0	46189	5799.859216165581	102
0	46219	5802.756654803637	103
0	46226	5803.608509141204	102
0	46239	5804.864435584909	101
0	46255	5805.477766257609	102
0	46264	5806.423695838697	103
0	46274	5807.234044816179	104
0	46302	5811.882555957118	105
0	46316	5815.529074037324	104
0	46387	5823.442331139084	105
0	46396	5825.161762683569	106
0	46483	5835.770023035237	107
0	46493	5836.658649173264	108
0	46494	5836.895410597047	107
0	46506	5837.977303335193	106
0	46509	5838.61888526747	105
0	46514	5841.082137234691	106
0	46515	5841.255931790819	105
0	46576	5851.264858553689	106
0	46598	5853.051518297361	105
0	46608	5853.27444402861	106
0	46646	5859.978450571679	107
0	46652	5861.119754839787	108
0	46692	5871.710312239479	109
0	46697	5872.044943366643	108
0	46703	5872.231383065305	107
0	46741	5878.908505868695	108
0	46792	5886.868790603416	107
0	46816	5893.016337898385	108
0	46835	5899.404927043043	107
0	46841	5900.442123721297	106
0	46868	5904.178012357476	105
0	46903	5911.568510270634	106
0	46959	5919.831598737373	105
0	47006	5926.072171466859	106
0	47061	5932.641323175891	107
0	47071	5934.687471639233	106
0	47079	5935.97116505268	107
0	47091	5939.261756649005	106
0	47096	5939.410519900871	107
0	47128	5945.091966932507	108
0	47145	5947.834994603154	107
0	47221	5959.039632492689	108
0	47234	5960.911282344077	109
0	47246	5962.231215305591	110
0	47268	5964.987754757301	111
0	47333	5977.864852924217	110
0	47369	5983.019140495324	111
0	47427	5991.265478223664	112
0	47441	5996.218787934984	111
0	47464	5998.586444224994	110
0	47496	6002.032634762974	111
0	47509	6003.349931233288	112
0	47518	6004.058972600534	113
0	47583	6013.824164993299	114
0	47647	6022.935969818174	113
0	47723	6033.207572883889	112
0	47728	6033.729168464183	113
0	47738	6036.512563765286	114
0	47750	6037.870957845752	115
0	47758	6038.432496294574	114
0	47761	6038.442040341578	113
0	47787	6041.228090941997	112
0	47790	6041.703444311269	111
0	47833	6048.930196403444	112
0	47847	6051.406749164345	113
0	47890	6057.613374954126	112
0	47929	6065.043105968813	111
0	47952	6066.768736383176	112
0	47989	6073.497899860738	113
0	47996	6075.812304603726	112
0	48010	6077.200888872699	113
0	48016	6077.35750695837	114
0	48054	6083.101872795119	113
0	48057	6083.159302454741	112
0	48098	6089.080449485072	113
0	48145	6097.820847904341	112
0	48177	6100.990235410369	111
0	48188	6101.990919301936	112
0	48189	6103.269897988937	111
0	48201	6104.813020223093	110
0	48217	6108.855450200945	109
0	48247	6113.158514325856	108
0	48252	6113.661805986096	109
0	48270	6116.032946487338	108
0	48278	6117.214784022384	107
0	48304	6121.647194148785	108
0	48327	6126.772608722782	107
0	48335	6126.973733440939	108
0	48381	6133.579373989971	109
0	48412	6137.877534801508	108
0	48542	6156.447013880925	107
0	48547	6157.961856812014	106
0	48554	6160.374108418388	107
0	48558	6160.778606417636	106
0	48564	6162.00661634216	105
0	48572	6162.951292836477	106
0	48605	6167.1234006832	107
0	48609	6172.292873385613	106
0	48649	6176.240155339485	107
0	48656	6177.319572197688	108
0	48677	6180.655946021325	107
0	48725	6188.253434234272	106
0	48737	6190.412961565821	105
0	48748	6191.683339713339	106
0	48751	6192.314108623883	107
0	48762	6193.064628805285	106
0	48767	6193.834663969772	107
0	48773	6194.550850264414	108
0	48799	6199.650986685527	107
0	48816	6203.256929546778	108
0	48819	6203.974748503514	109
0	48825	6204.263357310118	110
0	48862	6210.672262014918	111
0	48870	6211.878403949162	110
0	48877	6212.480816788248	111
0	48895	6217.785105666659	112
0	48896	6218.392341724805	111
0	48960	6231.457186183084	110
0	48966	6232.771370061023	109
0	48980	6234.785900642143	110
0	49014	6240.433798853738	111
0	49015	6240.756486122343	110
0	49046	6245.698194012826	109
0	49065	6249.525191050822	108
0	49079	6251.349012587679	109
0	49097	6256.127063047268	110
0	49151	6268.165549433455	109
0	49162	6269.577085965971	110
0	49173	6271.667806054919	111
0	49185	6274.136522284159	112
0	49189	6277.471808110361	111
0	49211	6281.462243709046	112
0	49212	6282.332609630147	111
0	49217	6284.273063166961	112
0	49226	6285.454773789689	113
0	49236	6286.827590343785	114
0	49275	6293.525503139169	113
0	49293	6297.77349647608	112
0	49321	6303.899742019242	111
0	49343	6307.126091091505	110
0	49384	6312.460577833681	111
0	49387	6313.107873835891	112
0	49394	6313.752354327807	111
0	49442	6319.33785399002	112
0	49465	6322.990293019145	113
0	49484	6330.188113700625	112
0	49526	6336.76914054567	111
0	49551	6338.816792423802	110
0	49560	6341.193952640467	109
0	49616	6349.268117086655	108
0	49619	6349.430268909737	107
0	49637	6353.38728413585	108
0	49650	6354.648261960585	109
0	49658	6358.295534460569	110
0	49669	6359.950501416554	109
0	49681	6364.444040658683	108
0	49695	6365.787774851542	107
0	49752	6372.466099107139	108
0	49759	6373.180189261196	107
0	49766	6373.790823821792	106
0	49859	6392.540371465248	105
0	49877	6397.370513142931	104
0	49891	6398.880167644815	105
0	49908	6403.404191141258	104
0	49934	6410.263772297849	103
0	49951	6412.323156281888	104
0	49960	6415.815437526598	105
0	49965	6417.820745059877	106
0	49978	6419.598030763333	107
0	49992	6421.677372253958	108
0	49997	6422.265769620452	107
0	50009	6423.823578105149	106
0	50023	6425.58581112777	107
0	50102	6439.456129443782	108
0	50180	6454.828964163253	107
0	50207	6458.212263463598	108
0	50232	6461.740182265893	109
0	50254	6464.754409800433	108
0	50279	6468.141246992402	109
0	50304	6473.593438595577	108
0	50312	6473.931392529444	109
0	50323	6475.751243323826	108
0	50383	6482.933628558757	109
0	50427	6488.480272728933	108
0	50461	6493.00961083166	109
0	50465	6493.782172147359	108
0	50557	6519.895975293976	107
0	50620	6528.678300127989	106
0	50626	6532.818082724307	105
0	50629	6533.171448245132	104
0	50632	6533.972795988159	103
0	50638	6536.245228899797	102
0	50713	6555.94061355793	101
0	50734	6566.431051056948	100
0	50739	6568.175210755075	99
0	50742	6569.88896621455	98
0	50763	6575.466525329268	97
0	50797	6585.967081302796	96
0	50814	6590.00918255333	95
0	50966	6630.337794792417	94
0	50978	6633.601272090051	93
0	50981	6634.808969566561	92
0	50998	6639.966948488505	91
0	51089	6672.013307390956	90
0	51092	6673.442606437743	89
0	51097	6675.458868354824	88
0	51103	6676.596850179719	87
0	51106	6676.989303546772	86
0	51171	6693.504037670556	85
0	51193	6697.922895791996	84
0	51210	6703.14374565336	83
0	51213	6703.402281497093	82
0	51231	6710.992952669815	81
0	51277	6730.57315074483	80
0	51283	6730.905861684174	79
0	51286	6732.177375523296	78
0	51311	6742.115884770404	77
0	51391	6764.162438385397	76
0	51407	6767.515667738841	75
0	51464	6785.927542230135	74
0	51476	6790.547602432046	73
0	51571	6820.054268554171	72
0	51589	6823.52312148895	71
0	51592	6826.015475034054	70
0	51602	6827.934170653977	69
0	51617	6839.607385851604	68
0	51620	6839.649928248031	67
0	51642	6848.537181506474	66
0	51645	6848.738928606153	65
0	51683	6861.59261561987	64
0	51689	6862.554271570605	63
0	51754	6888.487047446954	62
0	51770	6893.635182237087	61
0	51778	6894.642046599934	60
0	51793	6898.266126115457	59
0	51811	6903.496936181773	58
0	51831	6910.19333582914	57
0	51834	6911.110300037965	56
0	51845	6913.428685215548	55
0	51866	6919.37998354862	54
0	51898	6927.352180650028	53
0	51935	6936.564209344335	52
0	52052	6971.929462886311	51
0	52063	6981.507399672219	50
0	52089	6987.260127272133	49
0	52120	7001.296541431786	48
0	52123	7004.745828168144	47
0	52126	7004.881913111701	46
0	52168	7027.965491564146	45
0	52205	7045.88281202486	44
0	52255	7060.143339349786	43
0	52300	7069.729037419304	42
0	52303	7070.70397663499	41
0	52318	7072.511551939372	40
0	52324	7072.889588961349	39
0	52346	7078.315767623722	38
0	52354	7080.801477653616	37
0	52360	7084.759838366372	36
0	52379	7090.227138921143	35
0	52396	7101.110494997292	34
0	52411	7104.109544231644	33
0	52458	7125.095193517583	32
0	52485	7136.627481910424	31
0	52517	7143.165766565783	30
0	52558	7156.531577473231	29
0	52597	7172.584798745698	28
0	52603	7175.567334618352	27
0	52609	7179.18847805055	26
0	52655	7195.174270965433	25
0	52674	7198.509700953979	24
0	52677	7199.296903235516	23
0	52702	7209.54663294001	22
0	52713	7213.630117163499	21
0	52716	7216.514231214873	20
0	52804	7256.669660385629	19
0	52816	7266.115972545141	18
0	52874	7290.695624809932	17
0	52915	7310.095299808726	16
0	52921	7311.001639938514	15
0	52938	7314.974809988304	14
0	52977	7332.805705949617	13
0	52980	7332.914238419869	12
0	52996	7337.726403187684	11
0	53040	7348.323317337648	10
0	53046	7348.913595138043	9
0	53106	7366.249021143238	8
0	53109	7367.585527132391	7
0	53131	7374.616861757626	6
0	53137	7378.552842671085	5
0	53143	7381.614575098065	4
0	53149	7383.164244684912	3
0	53155	7384.638602456145	2
0	53208	7402.915562603845	1
0	53222	7409.952839845131	0
1	0	0	0
1	11	2.051805262613	1
1	14	2.602853749283	2
1	17	2.850105724368	3
1	24	3.641013049947	4
1	27	3.959369190789	5
1	30	4.60881553904	6
1	33	5.649149343287	7
1	36	6.281026739365	8
1	46	7.191476744624	9
1	49	7.211902333023	10
1	53	8.273981869479	9
1	59	8.999389996462	10
1	62	9.61718543342	11
1	65	11.222424990482	12
1	68	11.841354450109	13
1	71	12.844611865604	14
1	74	12.970486275042	15
1	77	13.357890424099	16
1	80	13.512620104599	17
1	86	14.729745441147	18
1	92	15.265311161375	19
1	95	15.471514443405	20
1	96	16.118169227526	19
1	105	16.552318609878	20
1	108	16.806804628029	21
1	111	16.944089420555	22
1	114	16.968941117475	23
1	117	17.19553135263	24
1	120	17.457498166783	25
1	125	18.055244243601	26
1	126	18.094962002492	25
1	137	19.524444726844	26
1	140	20.200846626555	27
1	143	21.259680758043	28
1	150	21.890510852682	29
1	168	23.113900610493	30
1	171	24.171727023845	31
1	172	24.800527358808	30
1	182	25.179746269265	31
1	185	25.714810946348	32
1	194	26.771093177873	33
1	202	27.576024970798	34
1	205	27.894261479406	35
1	208	29.082660304071	36
1	220	30.168929684949	37
1	223	30.269964460258	38
1	229	30.881451371258	39
1	236	31.594034964591	40
1	242	32.214171979378	41
1	248	32.797050368245	42
1	251	32.925107133556	43
1	254	33.276283222937	44
1	257	33.402671859362	45
1	260	33.785372808224	46
1	263	34.018995919842	47
1	266	34.085293321324	48
1	269	34.320257183981	49
1	272	35.156354715951	50
1	275	35.264482848389	51
1	278	35.464769556049	52
1	287	36.005241798836	53
1	290	36.330582214365	54
1	296	36.421315505541	55
1	300	36.938405602216	54
1	305	37.46309615972	55
1	315	38.187310616031	56
1	326	38.367562868016	57
1	329	38.575411283283	58
1	332	39.210645900164	59
1	335	39.550992638399	60
1	336	39.705804355127	59
1	341	39.79191993672	60
1	344	40.118896791879	61
1	347	40.650312904549	62
1	350	41.015487662665	63
1	353	41.267907655556	64
1	356	41.499533716113	65
1	359	42.092157743565	66
1	366	43.965617623422	67
1	369	44.318637756696	68
1	372	44.32018931244	69
1	379	44.825208060195	70
1	382	45.695743886521	71
1	385	45.999559961242	72
1	395	47.178942894887	73
1	398	47.830574336504	74
1	401	47.940810666183	75
1	404	48.092631578179	76
1	410	49.057085143673	77
1	413	49.087226172767	78
1	416	49.692212859304	79
1	419	50.031877591886	80
1	422	50.346269690031	81
1	429	50.515513278475	82
1	432	50.62406037697	83
1	435	50.720983131547	84
1	436	51.135102070411	83
1	448	51.729248896568	84
1	451	52.012090880964	85
1	460	52.785098505228	86
1	463	52.887419120081	87
1	470	54.845335374777	88
1	479	56.209485732647	89
1	484	57.025228880591	90
1	489	57.635773155055	89
1	494	58.277836405503	90
1	500	58.767050775615	91
1	501	58.946920857425	90
1	506	59.476968702839	91
1	509	59.609152412454	92
1	510	60.425483532674	91
1	515	60.628013695254	92
1	518	61.158016573391	93
1	524	61.342594369137	94
1	527	61.49308129904	95
1	530	61.96035386545	96
1	533	62.505210993595	97
1	536	62.557123545778	98
1	539	63.01203539057	99
1	545	63.291132465728	100
1	551	64.738926547716	101
1	554	65.392441207942	102
1	557	65.580736183161	103
1	560	66.048224911739	104
1	569	66.316867283148	105
1	572	66.327234172729	106
1	578	66.504386234351	107
1	581	66.928043335708	108
1	584	66.949831516707	109
1	587	68.16862832005	110
1	590	68.200985124695	111
1	591	68.217340195778	110
1	596	68.380942466247	111
1	599	68.432625372042	112
1	604	69.560262198257	113
1	607	69.633596278584	114
1	610	69.944564083554	115
1	618	71.081160578811	116
1	621	72.390945950173	117
1	624	72.764832446076	118
1	627	73.272697568763	119
1	630	73.508222142182	120
1	633	73.714254190665	121
1	634	73.763908253421	120
1	639	74.439395086251	121
1	642	75.041074072775	122
1	647	76.086345676347	121
1	655	76.663110745479	122
1	656	76.808495425308	121
1	661	77.233008310785	122
1	673	78.555552753312	123
1	676	78.580541106625	124
1	679	78.650158777699	125
1	682	79.361678405316	126
1	685	79.78769728324	127
1	686	79.835220759903	126
1	691	79.966259623651	127
1	694	80.556817084336	128
1	701	81.19074710373	129
1	707	81.368058926633	130
1	710	81.62841033818	131
1	720	83.559665274567	132
1	725	83.761973625655	133
1	731	84.661222462616	132
1	736	85.438671495948	133
1	739	85.540116962489	134
1	742	85.812434789765	135
1	745	86.094287791537	136
1	751	87.23334544221	137
1	754	87.97819847064	138
1	761	88.220916964312	139
1	764	88.396458725635	140
1	767	88.689410184122	141
1	770	88.929333703558	142
1	773	89.533424957278	143
1	776	89.559422702471	144
1	779	89.659561368797	145
1	782	89.791947720856	146
1	790	90.212399739449	147
1	793	90.260624196833	148
1	810	91.793437686856	149
1	813	91.908700369994	150
1	819	92.412980303245	151
1	826	93.055250360343	152
1	829	93.235524659921	153
1	832	93.368865283194	154
1	845	94.649289637173	155
1	848	95.629206801852	156
1	851	95.71631538511	157
1	862	96.519707147777	158
1	865	96.865226731486	159
1	871	97.095468771935	160
1	877	97.140754668524	161
1	885	98.220924887754	160
1	893	98.449606617824	161
1	896	99.167853097932	162
1	902	99.764593381877	163
1	905	100.036418829398	164
1	908	100.449148696125	165
1	909	101.353874513751	164
1	914	101.8561499545	165
1	915	103.488849127716	164
1	920	103.70806967331	165
1	923	103.967038728883	166
1	931	105.372257301907	165
1	936	105.572497491951	166
1	939	105.91925079574	167
1	942	106.544709866685	168
1	949	107.506721793275	169
1	952	107.809352493836	170
1	955	108.979045344362	169
1	960	109.325421423661	170
1	966	109.97621876602	171
1	973	110.177414176339	172
1	976	110.324639213652	173
1	977	110.956677058476	172
1	982	110.996405853975	173
1	988	111.509120496605	174
1	991	111.763131874955	175
1	994	111.866100238674	176
1	997	112.051272593394	177
1	1005	112.661996692929	176
1	1013	113.847990579783	177
1	1020	114.293139919189	178
1	1023	114.816107572845	179
1	1026	115.080378036981	180
1	1029	115.222503548374	181
1	1035	115.660213598378	182
1	1038	115.671706848587	183
1	1041	116.570558779721	184
1	1049	116.729491959377	185
1	1050	116.954685485032	184
1	1055	117.143911006581	185
1	1058	117.425435029052	186
1	1063	117.860870726981	187
1	1066	117.971092743819	188
1	1076	119.941150309411	189
1	1079	119.974334693482	190
1	1082	120.031301225949	191
1	1085	120.082118193826	192
1	1088	120.386089753055	193
1	1091	120.390262544326	194
1	1099	120.995154208379	195
1	1102	121.540003932076	196
1	1105	121.563324692121	197
1	1111	122.275332757746	198
1	1114	122.333860656693	199
1	1120	123.2937185771	200
1	1123	123.527874027288	201
1	1128	124.671564647875	202
1	1131	124.868026533772	203
1	1134	124.940445643887	204
1	1137	124.950181053228	205
1	1140	125.17283701131	206
1	1146	125.316090032692	207
1	1149	125.932009316476	208
1	1152	125.977647365972	209
1	1155	127.17626504267	210
1	1158	127.256343898614	211
1	1161	127.586065215058	212
1	1164	127.952516506891	213
1	1167	127.987889237747	214
1	1170	128.814183998686	215
1	1177	129.851429092789	216
1	1178	130.424708308493	215
1	1186	131.192698067359	216
1	1189	131.432580795842	217
1	1192	131.757751666331	218
1	1193	131.835689107524	217
1	1198	131.89570489826	218
1	1201	132.054716915059	219
1	1204	132.228915631642	220
1	1207	132.336493446478	221
1	1210	132.367502453065	222
1	1213	132.464299925373	223
1	1220	133.201431555907	224
1	1234	134.878316355881	225
1	1237	135.321966041894	226
1	1240	135.519289901145	227
1	1241	135.875097003771	226
1	1244	136.097378017256	225
1	1249	136.189936023912	226
1	1258	136.953926119987	227
1	1265	137.504458121996	228
1	1271	138.204483758111	229
1	1281	139.156539804066	230
1	1284	140.154460669958	231
1	1287	140.325999297331	232
1	1293	141.233311641565	233
1	1301	141.332533168049	234
1	1304	141.397298860839	235
1	1307	141.949002473429	236
1	1310	142.248330855847	237
1	1311	143.014106696968	236
1	1314	143.288468724432	235
1	1320	144.284608238359	234
1	1333	145.209498287676	235
1	1343	145.968463061925	236
1	1344	146.258780470164	235
1	1347	147.108735723524	234
1	1360	147.84113182162	233
1	1363	148.307634447838	232
1	1368	148.617651324155	233
1	1371	148.708158794303	234
1	1388	150.808425340899	235
1	1391	151.288083652543	236
1	1394	151.321087637599	237
1	1398	151.511715811039	236
1	1410	152.066952520563	237
1	1413	152.188949507487	238
1	1417	152.649569118375	237
1	1420	153.028121822432	236
1	1425	153.030545216852	237
1	1432	153.401706937653	238
1	1433	154.718701809016	237
1	1438	155.046890364727	238
1	1441	155.848511625949	239
1	1444	155.916045782826	240
1	1445	157.288971268089	239
1	1450	157.444984653538	240
1	1453	157.518036310693	241
1	1456	158.668698903622	242
1	1459	159.147911598105	243
1	1462	159.594714216587	244
1	1463	160.044892746958	243
1	1468	160.152844907165	244
1	1475	160.704647028803	245
1	1478	161.042993147502	246
1	1483	162.210355149009	247
1	1486	162.269125359736	248
1	1492	162.716265262333	249
1	1499	162.994620423033	248
1	1504	163.167504060824	249
1	1510	163.252977158249	250
1	1513	163.763675952221	251
1	1520	164.940195447007	252
1	1521	165.139356837075	251
1	1526	167.29353021508	252
1	1529	167.422568718264	253
1	1535	167.958153690689	254
1	1536	167.988672659057	253
1	1541	167.996691748553	254
1	1544	168.262508297575	255
1	1547	168.630536592727	256
1	1553	169.432944027589	257
1	1559	170.320682588133	258
1	1562	170.797198409106	259
1	1565	171.266076564734	260
1	1568	171.56764642213	261
1	1571	171.839202213812	262
1	1574	172.027766938063	263
1	1577	172.62431685494	264
1	1580	172.647535644582	265
1	1583	172.987395695124	266
1	1586	173.258865661553	267
1	1596	173.956803210384	268
1	1599	174.475061912399	269
1	1600	175.627175169371	268
1	1614	177.178945058312	269
1	1617	177.291973642364	270
1	1623	178.522692493395	271
1	1629	179.468794234649	272
1	1636	179.669476278814	273
1	1639	180.06212480291	274
1	1642	180.144815948456	275
1	1645	180.167520932822	276
1	1648	180.242712741986	277
1	1651	180.262202034938	278
1	1676	183.370132032173	279
1	1679	183.688973080586	280
1	1682	184.153112125346	281
1	1685	184.178940169772	282
1	1697	185.980507542976	281
1	1702	186.36858688433	282
1	1705	186.39546750384	283
1	1706	186.880979075653	282
1	1713	187.19803663159	283
1	1720	187.377995846562	284
1	1723	187.427911448988	285
1	1726	187.720462050179	286
1	1729	188.311297270584	287
1	1736	188.421813147186	288
1	1746	189.769261970877	289
1	1749	189.777149762376	290
1	1750	190.11932078272	289
1	1753	192.009971460298	288
1	1758	192.010789613475	289
1	1761	192.664379587898	290
1	1764	193.029742794551	291
1	1767	193.348135810607	292
1	1773	193.508619917965	293
1	1788	194.516633458449	294
1	1794	195.333226147297	295
1	1795	195.396513897741	294
1	1803	195.426981534907	295
1	1806	195.566096391964	296
1	1809	195.98125000832	297
1	1812	195.989798026965	298
1	1822	197.932386655811	299
1	1825	198.274561347427	300
1	1831	199.049078135362	301
1	1836	199.276024089066	300
1	1841	199.459191865742	301
1	1842	199.614822703193	300
1	1847	200.065904274986	301
1	1854	200.954432987312	302
1	1857	200.971448611042	303
1	1863	202.022286474844	304
1	1866	202.163764385261	305
1	1869	203.177761203591	306
1	1875	203.209589678047	307
1	1882	203.991474101151	308
1	1888	204.474527125414	309
1	1891	204.569811608286	310
1	1894	204.828270857004	311
1	1897	205.356414847726	312
1	1900	205.727181708602	313
1	1909	206.730655265344	314
1	1912	207.248883113448	315
1	1913	207.714964254116	314
1	1918	207.907202155758	315
1	1921	208.035566228908	316
1	1931	209.385340751535	317
1	1934	209.723781884352	318
1	1940	209.891118589986	319
1	1943	210.003648536365	320
1	1946	210.384159484927	321
1	1952	210.591083945572	322
1	1955	210.667231920774	323
1	1958	210.84214218087	324
1	1961	210.947800198245	325
1	1964	211.539102983814	326
1	1967	213.016375088004	327
1	1970	213.191002884484	328
1	1973	213.923718327045	329
1	1979	214.273104768968	330
1	1985	214.504007915028	331
1	2000	215.290870189451	332
1	2003	215.517234379937	333
1	2004	215.588560898802	332
1	2009	216.863861668473	333
1	2012	217.071564954685	334
1	2015	217.673938462643	335
1	2031	218.327560553458	336
1	2037	218.889400092843	337
1	2040	218.963664007824	338
1	2043	219.155621909775	339
1	2046	219.553100989698	340
1	2055	220.693625464662	341
1	2061	221.628205881011	342
1	2068	222.144409335948	343
1	2071	222.778044815613	344
1	2074	222.867011573483	345
1	2077	223.236796118259	346
1	2080	223.476773746341	347
1	2083	223.648496696132	348
1	2086	223.791719967613	349
1	2089	223.89353560959	350
1	2092	224.31420328199	351
1	2095	225.208309170115	352
1	2104	226.790963596615	353
1	2110	226.99992508757	354
1	2113	228.277927216736	355
1	2114	228.600686682475	354
1	2119	229.292886175106	355
1	2122	229.60308229837	356
1	2125	230.433342945137	357
1	2128	230.966407200843	358
1	2131	231.086865468612	359
1	2134	231.404634809994	360
1	2149	232.939577473581	361
1	2152	233.505707025277	362
1	2159	234.084052577598	361
1	2170	234.637061054816	362
1	2173	235.061513905875	363
1	2182	237.397564467112	364
1	2189	237.817726983353	365
1	2192	238.328222146056	366
1	2193	238.683942891865	365
1	2198	238.806798717126	366
1	2199	239.979491020027	365
1	2204	240.143816337336	366
1	2213	241.315465875277	367
1	2217	241.676963354406	366
1	2223	242.183858019707	365
1	2228	242.235900137199	366
1	2232	243.68362205294	365
1	2237	244.549633489958	366
1	2240	245.185683961082	367
1	2243	245.308794415999	368
1	2244	245.580994951846	367
1	2249	245.919548590864	368
1	2250	246.245142610263	367
1	2256	247.098189405799	366
1	2259	248.108968336906	365
1	2267	248.376953341243	366
1	2270	248.989920609925	367
1	2273	249.258143703196	368
1	2276	249.318818003371	369
1	2279	249.33868509355	370
1	2282	249.4510296032	371
1	2285	249.961301000959	372
1	2288	250.441592814767	373
1	2291	250.463811466786	374
1	2297	250.933419498915	375
1	2300	251.006035557021	376
1	2303	251.281885649877	377
1	2306	252.341530593086	378
1	2309	252.734294929989	379
1	2310	253.463714723627	378
1	2315	253.504156865803	379
1	2318	253.637408409585	380
1	2323	254.411982042184	379
1	2328	255.132639527714	380
1	2331	255.163047521478	381
1	2334	255.29581120169	382
1	2340	256.344289609023	383
1	2350	257.506888627191	384
1	2353	257.559045317591	385
1	2359	257.615920490813	386
1	2362	257.617128792691	387
1	2374	259.577709077518	388
1	2377	260.03199665458	389
1	2380	260.243417829558	390
1	2383	260.262725934751	391
1	2386	260.385228850379	392
1	2393	260.992847955007	393
1	2396	261.24498763144	394
1	2399	261.328947671473	395
1	2411	262.081686970355	396
1	2414	262.150125845738	397
1	2417	262.217981723786	398
1	2423	262.412198776372	399
1	2426	263.232457768982	400
1	2429	264.157843483377	401
1	2433	264.549204593484	400
1	2438	264.71727184303	401
1	2441	264.767402664221	402
1	2444	264.939910695065	403
1	2450	265.691183068735	404
1	2453	265.764692986626	405
1	2462	267.212058976368	406
1	2465	267.329904313887	407
1	2468	267.43040983762	408
1	2475	267.643160803584	409
1	2476	267.819603141109	408
1	2481	267.857242998247	409
1	2484	269.281374013883	410
1	2487	269.479147831193	411
1	2490	269.734787432215	412
1	2493	270.17442361218	413
1	2499	270.509344318908	414
1	2502	270.62841505893	415
1	2508	271.519281201492	416
1	2511	271.773301508399	417
1	2514	271.898162366238	418
1	2517	272.072331587345	419
1	2520	272.120268786927	420
1	2523	272.262416855797	421
1	2526	272.266284678984	422
1	2535	272.649455001804	423
1	2542	273.80897096781	424
1	2545	274.746979083418	425
1	2548	275.145040088406	426
1	2555	275.651510187419	427
1	2558	276.768030105476	428
1	2559	277.253135186041	427
1	2564	277.503586860419	428
1	2567	278.322535160927	429
1	2573	278.784383183487	430
1	2576	278.882982683686	431
1	2579	278.911021645368	432
1	2587	279.767187802772	433
1	2588	279.771360897183	432
1	2596	280.176814962853	433
1	2606	282.724898987151	434
1	2609	283.077724004037	435
1	2612	283.145020971241	436
1	2619	284.30172026094	437
1	2622	284.981986128782	438
1	2625	285.075792303622	439
1	2636	286.448516309453	440
1	2639	286.46494549316	441
1	2642	286.664216150729	442
1	2650	287.270994234188	443
1	2661	288.087082799681	442
1	2664	288.962255941349	441
1	2669	289.281527179443	442
1	2672	289.451584268236	443
1	2678	289.892625205535	444
1	2688	290.445424539039	445
1	2691	290.728526368029	446
1	2694	290.959466209673	447
1	2697	291.084491758516	448
1	2709	294.332474141888	449
1	2712	294.609781670818	450
1	2724	294.938809339077	451
1	2727	295.469840026889	452
1	2737	296.65124542548	453
1	2742	296.991398513723	452
1	2747	297.561634860975	453
1	2750	297.885799295261	454
1	2753	298.352671472723	455
1	2756	298.623188177271	456
1	2759	299.233621720312	457
1	2765	299.455996775423	458
1	2768	299.540870499234	459
1	2771	299.588020987856	460
1	2774	299.929504065465	461
1	2777	300.38777862852	462
1	2780	300.533038978468	463
1	2786	301.683235292446	464
1	2792	301.867209236076	465
1	2795	301.889325018506	466
1	2798	302.174186618618	467
1	2801	302.266574137373	468
1	2804	302.317583047318	469
1	2815	303.188453395652	470
1	2821	303.570661141317	471
1	2836	304.277069568706	472
1	2839	304.327677778023	473
1	2846	304.585287895582	474
1	2854	304.674244787152	475
1	2861	305.126760389246	476
1	2869	305.778691592137	477
1	2872	306.015464416858	478
1	2875	306.542633206555	479
1	2878	307.010257283823	480
1	2881	307.100281698317	481
1	2884	307.735180720131	482
1	2890	309.077008044986	483
1	2900	310.261694195641	484
1	2903	310.456500292162	485
1	2909	311.268405812024	486
1	2912	311.713124266979	487
1	2915	311.818637146939	488
1	2918	314.386559866703	489
1	2924	314.719011788287	490
1	2927	314.894561017759	491
1	2928	315.445707430464	490
1	2933	315.635834825583	491
1	2936	315.928362898506	492
1	2939	316.152770102037	493
1	2947	316.741185821805	492
1	2952	317.168482775093	493
1	2958	318.196744970212	494
1	2961	318.402562801832	495
1	2962	318.403328650267	494
1	2967	318.591670262303	495
1	2970	318.783153701144	496
1	2971	318.980780103654	495
1	2976	319.092955835703	496
1	2986	320.183252375381	497
1	2989	320.393669278615	498
1	2992	321.129462605627	499
1	2995	321.557715972124	500
1	2998	321.601058326077	501
1	3001	321.834919410641	502
1	3002	321.84978887775	501
1	3007	322.754822089444	502
1	3010	322.941272475602	503
1	3013	323.093848623742	504
1	3014	323.199944562487	503
1	3025	324.08622643989	504
1	3041	325.318682119787	505
1	3044	326.074022988289	506
1	3047	327.062171641455	507
1	3050	327.334499584125	508
1	3053	327.575380022689	509
1	3056	327.873539092662	510
1	3057	327.915611092895	509
1	3065	328.608911515874	510
1	3078	329.465834617359	511
1	3089	329.839891990634	510
1	3094	329.873011797897	511
1	3103	330.023009294261	512
1	3106	330.511498580651	513
1	3109	330.592356836132	514
1	3115	331.455605380397	515
1	3118	331.818789965652	516
1	3121	331.874676183966	517
1	3124	332.252389889504	518
1	3127	333.234983446148	519
1	3136	333.986866620812	520
1	3142	334.795750309429	521
1	3148	336.27767232017	522
1	3151	336.39090960438	523
1	3154	337.742756461279	524
1	3160	339.048585803034	525
1	3166	339.463732197522	526
1	3169	339.568796030423	527
1	3172	339.601234446573	528
1	3175	340.214275801448	529
1	3178	340.568364601544	530
1	3181	340.731984015055	531
1	3182	341.01153633161	530
1	3187	341.132860228701	531
1	3190	341.316157550673	532
1	3196	342.279404617281	533
1	3199	342.557317664083	534
1	3202	343.307414042011	535
1	3205	343.870604019429	536
1	3208	344.571275061587	537
1	3211	345.069563878799	538
1	3214	345.567033856222	539
1	3225	347.102446375733	540
1	3228	347.149374506511	541
1	3231	347.279610786649	542
1	3234	347.4778121072	543
1	3237	347.493049891503	544
1	3245	347.901704447524	545
1	3248	348.147093454021	546
1	3249	348.718034637203	545
1	3254	348.828241358061	546
1	3257	348.831512395584	547
1	3260	348.94972859062	548
1	3266	349.564008869237	549
1	3269	349.70882500372	550
1	3270	349.735478466888	549
1	3281	351.112165560229	550
1	3287	351.440827617898	551
1	3296	352.768150590386	552
1	3302	353.063789383082	553
1	3305	353.521147294534	554
1	3306	354.630587933111	553
1	3312	355.208667224547	552
1	3317	355.56767335885	553
1	3320	355.846219050102	554
1	3323	357.332835138425	555
1	3330	357.409070604507	556
1	3333	357.555666397057	557
1	3334	357.985669004016	556
1	3339	358.056426906521	557
1	3345	358.800428475849	558
1	3348	359.248176750607	559
1	3349	359.729196933898	558
1	3354	360.240745868453	559
1	3357	360.481334896209	560
1	3368	361.013385781622	561
1	3371	361.274188937851	562
1	3374	361.956353210779	563
1	3386	362.80738513399	564
1	3389	363.291396295105	565
1	3392	363.460748601204	566
1	3398	364.178048429712	567
1	3401	364.188163105337	568
1	3402	364.351241273718	567
1	3408	365.224573327135	566
1	3413	365.623267224668	567
1	3419	366.477237982522	568
1	3425	366.762514828833	569
1	3428	367.739551072707	570
1	3431	368.612590124428	571
1	3442	368.759179422652	572
1	3445	369.834603469057	573
1	3448	369.882525386151	574
1	3451	369.95835511871	575
1	3454	371.491361524482	576
1	3457	371.754522421088	577
1	3458	372.138179856945	576
1	3463	372.428083211551	577
1	3475	373.396983614443	578
1	3478	373.540794969235	579
1	3479	374.343751822303	578
1	3488	376.10995755413	579
1	3494	376.314952528186	580
1	3497	376.453474370297	581
1	3503	377.161628454144	582
1	3514	380.041372235478	583
1	3517	380.381471818623	584
1	3523	382.290090589266	585
1	3531	382.967229736624	586
1	3532	383.178263843634	585
1	3535	383.342635927837	584
1	3540	383.734673659661	585
1	3551	384.12937345888	586
1	3554	384.351929095859	587
1	3560	384.409160542054	588
1	3566	385.030448644341	589
1	3572	385.068098447997	590
1	3575	385.098949326123	591
1	3578	385.632972666848	592
1	3581	386.763213505776	593
1	3584	387.365421799826	594
1	3587	387.494624007114	595
1	3590	387.589362760271	596
1	3593	387.72022569605	597
1	3601	388.061056469095	596
1	3612	389.533301104689	597
1	3615	389.544721191233	598
1	3630	390.146414632525	599
1	3641	391.324296908696	598
1	3646	392.105428753002	599
1	3649	392.310545728514	600
1	3650	392.454331988248	599
1	3655	393.267075350337	600
1	3658	393.382378174196	601
1	3659	393.55194539213	600
1	3664	393.689786324356	601
1	3665	393.966361368636	600
1	3673	394.517488146114	601
1	3676	394.573056532304	602
1	3682	395.104174051419	603
1	3685	395.383390089702	604
1	3688	395.421657639717	605
1	3696	398.68597205865	606
1	3699	399.18514381203	607
1	3707	401.557587162659	608
1	3710	401.7732774784	609
1	3713	402.210581334431	610
1	3734	404.453675639555	611
1	3737	404.501743119384	612
1	3738	404.586315624292	611
1	3741	405.601722411813	610
1	3746	405.671988415719	611
1	3749	406.11253419588	612
1	3755	406.42216742165	613
1	3758	406.731285111855	614
1	3761	407.615145799854	615
1	3769	408.492398655481	616
1	3772	408.560757010428	617
1	3775	409.200200003826	618
1	3778	409.776908958921	619
1	3781	410.003553677355	620
1	3784	410.554485651912	621
1	3787	410.997275573957	622
1	3790	411.176024627397	623
1	3796	411.822122420145	624
1	3799	412.063195952868	625
1	3802	412.098989011285	626
1	3803	412.113657210547	625
1	3808	412.560397549064	626
1	3811	412.927372426946	627
1	3829	414.465914484439	628
1	3832	414.917236070017	629
1	3844	416.653105850844	630
1	3847	417.112022737416	631
1	3850	417.114089503259	632
1	3859	417.528237436419	633
1	3865	419.770412093528	634
1	3868	420.100110613463	635
1	3874	420.46224179664	636
1	3883	422.626218811591	637
1	3886	422.740693540983	638
1	3889	423.053202758385	639
1	3892	423.238798642677	640
1	3895	423.303227043953	641
1	3898	423.411309351235	642
1	3899	423.462602533958	641
1	3904	423.917190281999	642
1	3907	424.192272595758	643
1	3910	424.389946406826	644
1	3922	425.626788669908	645
1	3925	425.800420543697	646
1	3926	425.841548749373	645
1	3931	425.909496403761	646
1	3932	426.085882363512	645
1	3937	426.83530997379	646
1	3940	427.520213122529	647
1	3950	429.119714858229	646
1	3953	429.623795817774	645
1	3964	431.92312751345	646
1	3979	432.857856348601	647
1	3982	432.91648524892	648
1	3988	432.944369125065	649
1	3991	434.36820377242	650
1	3994	434.547274662525	651
1	4000	435.394424807814	652
1	4007	436.060486309729	653
1	4013	436.938087328437	654
1	4018	439.627506716854	655
1	4021	440.186558518511	656
1	4025	440.886295742534	655
1	4030	441.090914312025	656
1	4033	441.883635674239	657
1	4036	442.364829929639	658
1	4039	443.457456925605	659
1	4042	444.0074642897	660
1	4045	444.229347307764	661
1	4048	444.479183780274	662
1	4051	444.687383352117	663
1	4058	445.706329037851	664
1	4061	445.735875569628	665
1	4070	447.429514731864	666
1	4076	447.752944407282	667
1	4079	448.18396941963	668
1	4082	448.230809096668	669
1	4085	449.005974560321	670
1	4091	449.343851137234	671
1	4094	449.353741291991	672
1	4097	449.722673846747	673
1	4100	449.853381574571	674
1	4104	451.307696074533	673
1	4107	451.36638440615	672
1	4112	452.045007223623	673
1	4115	452.399703649108	674
1	4118	452.573176056574	675
1	4124	453.72772130187	676
1	4138	454.512707442028	677
1	4141	454.620726988045	678
1	4156	457.002223168627	679
1	4159	457.633796689336	680
1	4163	459.174865332686	679
1	4170	459.939665854207	678
1	4179	461.708287937384	679
1	4182	461.872086629966	680
1	4188	462.48496760554	681
1	4194	463.405123901942	682
1	4197	463.548076588524	683
1	4203	463.658713344527	684
1	4206	463.734624044388	685
1	4210	463.819537845005	684
1	4215	464.101318218672	685
1	4224	465.033357380831	686
1	4227	465.103629060928	687
1	4237	465.724609522311	688
1	4240	465.888576827414	689
1	4243	466.032265150741	690
1	4249	466.914415225091	691
1	4252	467.525706853887	692
1	4255	467.805293508911	693
1	4258	468.06705521858	694
1	4261	468.126243416346	695
1	4264	470.847140959741	696
[...]
12	150901	59881.776546256026	59256.171428088
12	150918	59891.917778902522	57538.301336976
12	150930	59905.923777692205	58179.949980626
12	150946	59910.696276113672	55635.09456755
12	150981	59920.45537597855	55555.436576737
12	150985	59922.021637654817	56724.496697343
12	150989	59924.620819270684	58951.761750219
12	151049	59959.608963895032	55044.187381593
12	151053	59961.225805612771	55204.925940445
12	151080	59973.767650145525	57160.650949957
12	151096	59987.514387023315	59049.213653042
12	151120	60003.81429020199	54519.034019694
12	151124	60008.333821863218	58279.988036448
12	151157	60023.823405421207	54285.816961544
12	151161	60024.737027595624	54123.645805979
12	151165	60025.619293558283	57185.342318593
12	151207	60036.710828390261	59284.58871805
12	151214	60040.291676031517	58207.77237035
12	151227	60045.587449536404	56888.843713484
12	151244	60052.057714172661	59942.732292749
12	151283	60074.839683169167	59079.202323972
12	151295	60082.923476836238	58902.594813535
12	151309	60092.169203945503	55672.205343696
12	151313	60093.10381656709	59851.890669171
12	151331	60102.736950160406	59256.608213312
12	151354	60125.287311985178	60111.295393836
12	151365	60135.346853744092	58290.560839789
12	151425	60163.917359889658	58617.265229955
12	151442	60171.069687418077	57353.302515701
12	151466	60181.716263787411	59964.852402119
12	151503	60197.117853473631	58556.58598429
12	151517	60206.159248610663	58283.68694966
12	151534	60218.730905289045	57735.497414012
12	151577	60235.3889110512	57425.154066183
12	151581	60237.920933731797	57271.167371579
12	151585	60240.070434841184	55551.84833651
12	151641	60270.315694996722	58745.508798319
12	151656	60276.375634985835	59190.249125807
12	151660	60276.572396401592	59130.690824913
12	151664	60281.512424183565	55936.514975692
12	151678	60286.055908394796	56704.378453962
12	151684	60293.100076382697	58407.754158157
12	151695	60302.702226311361	58836.278588894
12	151699	60307.321241917791	59190.49798697
12	151731	60317.547782835726	54892.214841852
12	151777	60350.696993339717	56342.839095937
12	151783	60354.165877235687	56237.539095518
12	151796	60364.37691270278	59562.443965757
12	151803	60371.98817352164	59542.188910988
12	151807	60372.821406629015	54336.308842864
12	151811	60376.660021046699	59848.678988424
12	151815	60383.836394603866	59552.521241448
12	151826	60391.527840974376	59596.661117288
12	151844	60410.260270922197	57936.674785444
12	151848	60414.061798325489	59479.828931409
12	151852	60416.032973737893	55319.773418784
12	151856	60419.281394552823	59696.10417637
12	151860	60420.891714406947	59393.573287764
12	151869	60421.626842875423	60215.899661167
12	151877	60427.338484318103	59366.958420384
12	151888	60437.339253299148	60257.194437351
12	151897	60440.472137585945	59376.958280251
12	151901	60442.998980895527	59700.935363647
12	151924	60461.975696599758	59628.049235681
12	151931	60466.727489737501	58296.52933504
12	151958	60486.73292346366	59235.039570309
12	152019	60512.749616724032	60173.285884527
12	152047	60526.141763871232	59367.964291646
12	152079	60545.849621047001	59259.072839021
12	152083	60547.43427638966	57010.423352635
12	152116	60562.539388464144	60129.595019339
12	152125	60563.257659708866	60056.226820998
12	152161	60582.61011760729	59565.485329128
12	152185	60593.400584387561	60253.799349941
12	152192	60599.834084877247	60060.69415597
12	152261	60629.140017316884	58923.461880066
12	152300	60657.624003852843	60573.862030227
12	152324	60670.235722397633	56287.02130682
12	152335	60670.990211592545	58987.362258087
12	152369	60687.102190989971	55701.276903585
12	152385	60690.984430115413	58907.058417488
12	152393	60693.806709591956	58047.534609646
12	152429	60717.327979996297	59296.278799063
12	152435	60722.551790968575	58164.924648971
12	152444	60724.755710327548	60144.076414319
12	152448	60725.699492330331	59993.531797985
12	152454	60731.869703247408	58928.419335703
12	152458	60736.706986427628	60719.9001818
12	152476	60762.924352460381	60684.274193683
12	152496	60767.328564185889	58932.8539092
12	152521	60781.123919273379	58701.037954692
12	152532	60786.096782262585	58925.553445265
12	152536	60786.106269193403	58839.241487708
12	152544	60787.798456031665	60648.641916228
12	152560	60795.085739708315	60646.377580914
12	152574	60802.399903073375	60714.003444348
12	152599	60811.63269004216	60615.642892015
12	152645	60836.156869432419	60655.91415669
12	152649	60837.30206597955	58822.216112419
12	152658	60840.520698233739	58758.106367109
12	152669	60846.328638684514	60730.656931836
12	152695	60866.900120742506	58922.730324754
12	152715	60873.948762526065	60608.184069539
12	152739	60879.226823044852	60579.770826269
12	152746	60881.443681504244	60562.852011242
12	152782	60903.406619086955	56533.627398787
12	152818	60918.739062746353	60517.181475584
12	152822	60919.023403481259	57294.010519944
12	152835	60926.303563731928	60554.549041311
12	152839	60926.671894211647	59338.63121607
12	152858	60934.320698500656	59355.007918347
12	152862	60942.057636748766	60466.453538652
12	152878	60947.730065910599	60437.891001301
12	152884	60954.384266311377	60596.975195707
12	152898	60960.455095231777	59189.902036499
12	152917	60968.740536373596	55969.386690701
12	152934	60976.486904084406	59357.210400667
12	152949	60990.333879751534	59206.935360967
12	152965	61000.86028726081	60490.508718945
12	152984	61006.868913847796	60362.170421238
12	152988	61008.289582204637	55519.852773973
12	153011	61026.096549222449	60365.670134595
12	153015	61028.010879427715	57463.774868289
12	153074	61052.450737730649	60315.906258752
12	153103	61074.935421138999	60778.284175714
12	153123	61094.532023787013	56031.025978305
12	153134	61103.645559133688	60464.822095329
12	153176	61118.08076450414	60198.34891245
12	153203	61153.51208917452	60423.528135893
12	153212	61155.782209214611	55573.568384584
12	153219	61159.913135310951	60591.343275563
12	153226	61168.825236580817	60553.170148441
12	153240	61174.126448412325	59676.471993069
12	153258	61194.408194127527	54926.400128086
12	153297	61211.683587947903	61084.427244049
12	153369	61254.143030468195	60474.695633541
12	153373	61256.234634093993	61038.560695631
12	153392	61273.423501531978	61049.775004836
12	153407	61275.946690941588	59425.667353235
12	153458	61303.182717071296	56112.045986235
12	153466	61303.991275404332	61074.698389229
12	153484	61307.63805707751	60248.874281515
12	153488	61310.648399346302	58370.937546451
12	153501	61324.549322022225	60286.548722079
12	153505	61327.026895962945	60351.713283292
12	153516	61338.192013483457	59381.460978503
12	153525	61338.952517359716	58292.047815842
12	153536	61358.258147456786	56544.256777201
12	153602	61386.708780336194	57429.212101008
12	153638	61412.494363241676	60623.950093492
12	153668	61429.800134897453	60853.276365047
12	153681	61439.476794377228	60382.845264494
12	153698	61444.951421719106	60573.822611267
12	153707	61454.759466829225	60214.038383427
12	153734	61488.302270859519	60382.382315504
12	153738	61489.136303694211	60194.480560279
12	153742	61493.674966888245	59502.823299211
12	153755	61503.57380103819	60208.300997854
12	153762	61511.109505876944	59124.163535532
12	153791	61524.33989030534	60655.447176197
12	153828	61552.132845952319	60085.549959191
12	153837	61557.178185967219	59956.776595739
12	153848	61562.047489687903	60055.458288684
12	153887	61581.976335757016	60052.53608809
12	153891	61583.075275206305	59797.695434773
12	153940	61610.177126934084	58847.097662746
12	153987	61632.417367400617	57172.228783955
12	153995	61633.438814768942	59759.004549711
12	154009	61634.754816687192	59064.777752426
12	154039	61656.326722806205	59086.549344063
12	154055	61661.804283248676	56841.910898088
12	154071	61665.49525127939	59182.127349022
12	154088	61669.530037592431	56488.561815244
12	154109	61685.460726711011	57173.071779475
12	154113	61690.239249078292	59073.205234033
12	154131	61698.217938099705	55945.304162621
12	154137	61706.020717758754	58155.434681943
12	154146	61709.626421933681	55464.847349299
12	154164	61715.157822567641	61404.896128372
12	154184	61722.139758637366	60256.967844543
12	154193	61727.920747360355	60363.238458759
12	154204	61743.626178909868	57792.246207624
12	154210	61748.330465215802	61735.359978941
12	154214	61749.824327684757	59431.416203441
12	154236	61761.939516119957	57885.89214617
12	154271	61782.717179218334	56562.522522005
12	154369	61831.623593858718	57228.539740728
12	154373	61836.049451024433	58916.837947125
12	154381	61842.139044662619	59395.182034236
12	154397	61856.134322769344	57104.644041371
12	154415	61863.932221493951	55458.433194655
12	154442	61889.306554422042	61647.991088547
12	154453	61898.757620277537	56836.195584371
12	154457	61901.444644933166	56033.62298629
12	154461	61907.60185534413	61871.180539839
12	154465	61912.262280489842	60078.124487597
12	154490	61922.334277933806	56454.77188885
12	154515	61941.233443562026	59511.943532519
12	154553	61966.020503444478	56544.232606689
12	154563	61978.125040727317	61569.632642072
12	154567	61980.046822346581	59683.51011548
12	154580	61987.866968040587	60504.867365093
12	154600	61999.233479097339	60037.670811557
12	154608	62006.299095207538	60656.612687625
12	154612	62006.340143017942	61834.31237608
12	154628	62014.141526643884	60967.224293125
12	154679	62034.452829343072	61681.684678753
12	154688	62042.948306694549	57726.256437875
12	154708	62055.013957536104	61707.91151116
12	154724	62068.618736742335	60800.274058836
12	154733	62073.479393162547	62045.585131683
12	154753	62091.013420479634	61980.836006303
12	154761	62101.171355264421	61989.662234768
12	154770	62114.233458934518	56100.409293941
12	154819	62161.8218092132	59892.800087553
12	154835	62177.859428721296	60167.585461993
12	154843	62186.08346316105	61383.443737051
12	154859	62199.999439458502	56397.242784655
12	154863	62200.290157481545	61601.499909651
12	154915	62221.083514559224	57045.147310968
12	154950	62240.645593919909	60816.953884434
12	154959	62250.97640089714	61225.742780255
12	154977	62260.564904123576	61954.022270917
12	155002	62269.033536081843	60842.608537908
12	155027	62281.681115599274	60886.834602642
12	155060	62298.43466124906	61457.608014759
12	155077	62308.367459240359	60671.562097488
12	155090	62316.884762091211	60621.08365022
12	155133	62339.535215880144	61257.199530153
12	155144	62347.655204605333	60420.983154461
12	155177	62362.55794350112	60675.24206726
12	155195	62378.127906039572	60386.515913262
12	155217	62392.868807507275	60797.246300469
12	155242	62400.977089922894	59233.936825162
12	155261	62406.6389725125	59956.24934462
12	155270	62410.643272592148	59908.158957004
12	155297	62427.535269408151	60367.614478884
12	155301	62428.570150997216	61838.962454503
12	155305	62428.833061146428	60126.480255086
12	155309	62430.012456068621	60849.516780164
12	155331	62447.719441773587	58704.877319625
12	155344	62451.127654959387	62191.095658305
12	155379	62481.221803708006	57931.792904775
12	155401	62511.71957354901	61971.881282681
12	155441	62531.445625206999	56838.075777661
12	155445	62533.310105726483	59999.199207988
12	155500	62570.615462722598	60522.078875721
12	155573	62619.518062028365	61997.090137931
12	155581	62623.793085915994	62445.270393423
12	155585	62624.79185672707	62421.582267049
12	155592	62626.252789396387	56515.532672233
12	155612	62637.728888342077	61135.010510434
12	155616	62637.910706148158	61928.372576824
12	155623	62646.323822139132	59388.829908794
12	155630	62648.176488561891	59443.675382807
12	155641	62650.124418595015	62404.815624179
12	155656	62662.920997973186	58951.725623215
12	155660	62664.006016496629	59333.608261127
12	155683	62670.967793280952	61123.156696877
12	155729	62698.067457621303	61080.340188469
12	155759	62732.201373144298	56872.222922573
12	155784	62745.384340191511	61836.684270696
12	155788	62745.731003491205	60982.923266624
12	155925	62821.842618686582	59365.326250978
12	155953	62846.28435344362	61957.871239108
12	155964	62849.594396224666	62129.965923886
12	155976	62861.512473459806	57018.215961565
12	155996	62866.055279447189	60633.192127939
12	156036	62883.150022424837	60392.544376943
12	156043	62884.979675536616	61433.601652053
12	156073	62917.423869064867	62228.960744694
12	156150	62962.668632521087	60875.118576697
12	156166	62974.326691074453	58759.54723615
12	156192	62981.952767831702	62298.601011047
12	156202	62986.601440734527	57179.367395918
12	156208	62990.16187908751	60698.426035962
12	156221	62992.597820725485	62556.537334416
12	156225	62992.606244970542	62071.995238029
12	156246	63007.950638152302	58145.689143696
12	156250	63008.488566999375	62946.9954857
12	156254	63009.031199629256	59771.46811893
12	156264	63019.018272297594	62724.120277459
12	156271	63023.844776553851	62548.356550708
12	156311	63054.174987357464	61375.579472666
12	156330	63059.541580698799	57351.019690482
12	156337	63061.31736816832	58577.120810103
12	156371	63077.781720468684	58924.377695062
12	156416	63098.138068994993	59762.63190007
12	156462	63125.636872476279	57331.893904835
12	156484	63134.781456268567	62386.101804309
12	156511	63144.585780352724	60858.124513219
12	156520	63145.640896456134	63141.681527265
12	156533	63150.054253011142	62287.404149655
12	156542	63153.617059738486	61891.63636766
12	156572	63174.315522426243	62807.80714351
12	156626	63207.345442217475	61513.55558261
12	156630	63207.886931960837	62128.334086685
12	156685	63238.166905973917	62385.449398923
12	156692	63240.344369454365	63210.074404994
12	156708	63248.202276288783	61403.131785851
12	156712	63257.75068567162	63000.191640354
12	156719	63264.223352217356	58555.880598466
12	156726	63268.386053615217	61687.950949738
12	156738	63277.573674360691	61545.557396426
12	156761	63304.077719422238	63108.744493275
12	156779	63326.970706291699	61269.365618318
12	156783	63327.62508843467	62466.153490123
12	156815	63345.645636445793	62726.343224361
12	156834	63357.405394010319	57237.268544271
12	156844	63366.90555007689	63162.431022951
12	156848	63370.169579477067	57947.62740555
12	156854	63377.906939482321	63146.940532281
12	156870	63385.714113404886	57258.740379964
12	156874	63390.358643547289	62165.214489319
12	156924	63407.696396142912	60237.07056655
12	156950	63443.13412086918	63093.570112
12	157031	63492.460844641493	62792.723547602
12	157069	63520.376881563869	62222.340428568
12	157081	63523.655562111104	61902.684747935
12	157085	63523.854688520954	61613.283337114
12	157103	63533.615892929794	61789.802207891
12	157113	63541.62474479709	63192.796503439
12	157121	63543.536489700343	59586.850071054
12	157125	63551.839889409552	61915.470208386
12	157129	63551.973308245987	57575.278157885
12	157137	63563.164172516517	57243.826318526
12	157149	63572.68367877589	61833.949091263
12	157153	63576.657401021311	61976.063832382
12	157175	63597.966106481402	61089.036117077
12	157189	63602.827528307942	61714.548784517
12	157253	63638.748886499553	63073.508845924
12	157260	63644.183144624896	57653.756244417
12	157289	63666.125986501298	61813.972636369
12	157299	63667.679063867286	61752.083109652
12	157322	63685.571841146757	62293.493268387
12	157326	63687.981838998344	61723.469687153
12	157332	63693.353236918545	61153.876971006
12	157336	63697.815049131544	60228.99413618
12	157340	63700.845810357783	59056.343477833
12	157386	63725.422331861291	62542.711580706
12	157390	63726.855589241067	60437.797561581
12	157394	63727.025165690045	61023.284033479
12	157398	63729.880621316237	62918.357990556
12	157410	63742.865377128326	58776.785426478
12	157440	63750.544564766918	59700.798891445
12	157466	63766.845381133391	62817.512710475
12	157493	63786.555402334266	60166.62255539
12	157532	63805.894413904973	58526.524127282
12	157544	63809.119499183494	57794.201106426
12	157548	63809.232112304466	62533.525258091
12	157614	63841.007806716672	63630.165664536
12	157624	63846.146201980006	63357.176927779
12	157707	63875.761874548183	63760.484463627
12	157724	63882.738213735721	62744.23283353
12	157728	63884.068772127522	57846.197814282
12	157744	63896.013130067039	63748.680308184
12	157753	63897.487421344494	62466.275426375
12	157784	63915.084385607414	63770.945325597
12	157808	63922.694435236014	58097.519094082
12	157860	63969.336772053641	62939.53362265
12	157871	63970.022119827111	62384.984426123
12	157878	63974.402688732466	62682.357843813
12	157882	63976.012037076727	63214.236186796
12	157886	63976.70030403203	62095.461914839
12	157903	63987.786424031112	61945.087406938
12	157946	64005.875673444771	59385.436538967
12	157956	64007.892406359701	59891.519431349
12	158000	64040.994321335545	63307.657867762
12	158006	64052.352843618591	61290.528979564
12	158022	64061.361580469688	61954.338692979
12	158025	64066.820870909915	63368.126925162
12	158029	64066.861426655122	62126.586752437
12	158063	64091.915704664109	62175.668199781
12	158084	64103.066346653539	59682.696320611
12	158121	64148.035071304623	58712.468997728
12	158124	64152.326544209938	62280.258923033
12	158128	64158.209189338552	62543.294521411
12	158147	64164.638293985539	64026.092811743
12	158174	64195.147181897478	60278.007308213
12	158191	64207.755403172479	63669.891481052
12	158234	64233.951532749364	59226.719156898
12	158264	64248.611515146913	58300.188628898
12	158291	64263.061731029913	62628.968046046
12	158295	64271.134578982502	58692.34958654
12	158320	64293.007010038501	63886.894475843
12	158334	64297.665845376338	63810.457753345
12	158338	64311.6457335485	64277.86036074
12	158348	64318.812723141022	62419.05969517
12	158351	64319.341627553903	62621.554062448
12	158355	64324.297790230908	62244.993115843
12	158359	64325.647506400376	58960.005861135
12	158363	64340.577624879825	63980.336879011
12	158379	64370.470083382	62159.511256887
12	158387	64376.492535217271	63882.471357063
12	158453	64419.600929632972	63228.704113928
12	158495	64432.529398402879	64276.680886777
12	158501	64439.520997629186	62407.561428254
12	158505	64441.809055096745	62187.71669098
12	158511	64447.267369842881	62506.148979512
12	158514	64448.828725263478	63069.174738133
12	158518	64456.332757379236	63727.578805889
12	158527	64495.657946781496	62453.476492413
12	158570	64521.408444180793	64084.470356852
12	158578	64523.959202837282	62532.073526363
12	158605	64542.661473377102	59732.20058702
12	158630	64554.804394744014	63467.112491654
12	158664	64562.979753191013	64503.370600779
12	158676	64570.644335115452	62167.03258535
12	158694	64583.177495614676	59550.233968799
12	158706	64587.803812534341	64297.075286166
12	158721	64596.274811980081	63770.575277841
12	158740	64612.168914973205	63858.0495472
12	158746	64614.186877709385	63021.904224406
12	158783	64645.058070790009	64279.314971624
12	158787	64646.288707774815	59716.66997933
12	158801	64657.342468037205	64013.326706474
12	158812	64662.05336811348	64176.089373088
12	158832	64680.061937868465	63025.107128364
12	158838	64683.395638449578	62137.766954556
12	158859	64714.407182360211	58741.717738088
12	158883	64745.840815770888	61635.653685671
12	158887	64745.899172404967	61641.946025574
12	158914	64768.821841886454	58551.03673622
12	158931	64776.523735605184	64267.89933077
12	158991	64811.219578804834	62745.400066309
12	158995	64816.799755820593	62889.346708629
12	158999	64818.994515028688	64152.479977614
12	159009	64827.344535210934	63549.270843131
12	159013	64827.909751283897	64074.43680739
12	159017	64831.22325703063	62804.181200415
12	159031	64848.133651753983	64383.030022693
12	159039	64851.453615210264	58847.39464261
12	159051	64871.624524671972	63496.621312207
12	159055	64877.213143037951	63408.117636852
12	159073	64884.469411000832	64615.188036987
12	159083	64899.634621980429	63113.629397488
12	159105	64926.059123286272	64345.71829971
12	159109	64934.583016624012	63642.672462749
12	159117	64937.99946295548	63602.878316951
12	159128	64943.586103498544	59967.306265223
12	159131	64946.240223310207	62180.523145266
12	159145	64963.639065649819	63677.085983481
12	159182	64988.472814733965	63769.983645098
12	159185	64989.031207922294	61265.449690648
12	159191	64994.978769796848	60032.964787904
12	159194	65010.565022257716	59598.855799158

