version 2
run General-0-20181205-12:49:53-7428
attr configname General
attr datetime 20181205-12:49:53
attr experiment General
attr inifile omnetpp.ini
attr iterationvars ""
attr iterationvarsf ""
attr measurement ""
attr network ER_Optimize_One
attr processid 7428
attr repetition 0
attr replication #0
attr resultdir results
attr runnumber 0
attr seedset 666
param **.source_waiting_room.interArrivalTime exponential(1.0s)
param **.source_ambulance.interArrivalTime exponential(1.0s)
param **.nurse.serviceTime exponential(8s)
param **.nurse1.serviceTime exponential(8.1s)
param **.nurse2.serviceTime exponential(8.2s)
param **.doc.serviceTime exponential(6.9s)
param **.doc1.serviceTime exponential(7.3s)
param **.Xray.serviceTime exponential(6.8s)
param **.MRI.serviceTime exponential(7.5s)
param **.Surgery.serviceTime exponential(9.1s)
param **.source_waiting_room.numJobs 7000
param **.source_ambulance.numJobs 3000
param **.level_5_queue.capacity 150
param **.level_3_4_queue.capacity 100
param **.level_1_2_queue.capacity 100

vector 0 ER_Optimize_One.level_5_queue queueLength:vector ETV
attr interpolationmode sample-hold
attr title "queue length, vector"
vector 1 ER_Optimize_One.level_3_4_queue queueLength:vector ETV
attr interpolationmode sample-hold
attr title "queue length, vector"
vector 2 ER_Optimize_One.level_1_2_queue queueLength:vector ETV
attr interpolationmode sample-hold
attr title "queue length, vector"
vector 3 ER_Optimize_One.waiting_for_doc queueLength:vector ETV
attr interpolationmode sample-hold
attr title "queue length, vector"
vector 4 ER_Optimize_One.waiting_for_doc1 queueLength:vector ETV
attr interpolationmode sample-hold
attr title "queue length, vector"
vector 5 ER_Optimize_One.waiting_for_doc2 queueLength:vector ETV
attr interpolationmode sample-hold
attr title "queue length, vector"
vector 6 ER_Optimize_One.wait_for_work queueLength:vector ETV
attr interpolationmode sample-hold
attr title "queue length, vector"
vector 7 ER_Optimize_One.wait_for_work1 queueLength:vector ETV
attr interpolationmode sample-hold
attr title "queue length, vector"
vector 8 ER_Optimize_One.wait_for_result queueLength:vector ETV
attr interpolationmode sample-hold
attr title "queue length, vector"
vector 9 ER_Optimize_One.wait_for_result1 queueLength:vector ETV
attr interpolationmode sample-hold
attr title "queue length, vector"
vector 10 ER_Optimize_One.wait_for_result2 queueLength:vector ETV
attr interpolationmode sample-hold
attr title "queue length, vector"
vector 11 ER_Optimize_One.sink lifeTime:vector ETV
attr interpolationmode none
attr title "lifetime of arrived jobs, vector"
attr unit s
0	0	0	0
0	142	12.43785748665	1
0	145	12.650269535317	2
0	159	15.516342292625	1
0	170	16.703368099428	2
0	177	19.516433656377	1
0	182	19.831295764588	2
0	202	21.740554312259	1
0	210	23.461405968995	2
0	219	25.428551177725	3
0	222	26.159041593277	4
0	225	26.162598400189	5
0	240	27.787615832874	6
0	258	30.655593043094	5
0	269	31.267504839241	6
0	299	33.266107450341	7
0	305	33.859727911698	8
0	314	34.683335671512	9
0	323	35.894805548822	10
0	357	39.259682639395	11
0	370	40.686220260565	10
0	376	42.335100992296	9
0	413	47.790440983618	8
0	416	47.822058597743	7
0	430	48.446495764234	8
0	435	48.933688130477	9
0	456	50.772399313421	8
0	472	52.809206897834	9
0	484	54.234700111347	10
0	490	55.502756825433	11
0	527	58.899017280883	12
0	551	60.212243632292	13
0	568	61.97114875284	12
0	590	64.409123141551	13
0	613	67.164774214423	14
0	616	67.23872535699	15
0	622	68.175506417854	16
0	625	68.206724894151	17
0	638	71.608246208738	18
0	662	73.205134640578	19
0	673	76.124449546581	20
0	682	77.919653630989	19
0	695	78.771603677493	20
0	712	80.281515507682	21
0	729	82.148824156265	22
0	750	85.99135243159	21
0	755	86.026283869222	22
0	772	88.69473528728	23
0	791	90.249710579531	24
0	794	90.259463265492	25
0	805	92.725567051903	26
0	843	100.027278479763	27
0	852	100.924873904454	28
0	853	101.152126853454	27
0	856	101.656654442372	26
0	896	105.233562689956	25
0	924	107.545675080147	26
0	934	109.604196005744	25
0	959	111.244371441847	26
0	983	115.069610904339	27
0	992	115.891623022302	28
0	1012	118.42653082267	29
0	1041	120.303793022778	30
0	1086	123.618135575389	31
0	1101	124.585972151522	32
0	1107	124.673261474638	33
0	1130	127.992056994887	34
0	1133	128.308578169332	35
0	1136	128.625296373081	36
0	1142	129.010622725977	37
0	1151	129.974460363847	38
0	1162	132.239721908639	39
0	1185	135.649517258216	40
0	1215	138.396681967955	41
0	1221	139.60876412084	42
0	1258	144.323101589588	43
0	1261	144.424568055094	44
0	1264	144.543597281937	45
0	1268	145.32999569967	44
0	1273	145.498152056872	45
0	1284	146.304736478121	46
0	1290	146.552953798863	47
0	1305	147.479233072557	48
0	1325	148.4278999889	49
0	1383	153.87520382363	50
0	1400	155.549864473811	51
0	1403	155.822256758302	52
0	1430	158.465673434909	51
0	1468	161.923594990461	52
0	1480	162.712655846222	53
0	1503	166.865843250044	52
0	1508	168.253543341886	53
0	1512	169.050069988799	52
0	1517	169.349116109633	53
0	1528	170.241105512508	54
0	1537	171.242624956403	55
0	1540	171.460837991353	56
0	1586	176.313027216856	57
0	1641	184.755543166594	58
0	1642	185.271762660967	57
0	1650	186.329864009635	58
0	1666	188.169308568502	57
0	1681	188.666024317363	58
0	1703	191.841246406887	59
0	1730	196.297520968456	60
0	1758	198.329931866748	59
0	1763	198.352670782915	60
0	1775	200.500859252806	61
0	1778	200.655625844846	62
0	1781	200.990660655073	63
0	1796	202.016247324429	64
0	1799	202.442776216841	65
0	1808	203.36861818744	66
0	1809	204.507047265669	65
0	1839	208.66115893684	66
0	1842	208.906192636579	67
0	1890	215.984689289435	68
0	1908	217.396163503286	67
0	1913	217.547120467964	68
0	1925	220.222305898059	69
0	1932	220.417237743176	68
0	1957	222.501943152914	69
0	1963	222.858069063042	70
0	1977	223.46856237644	71
0	1989	224.686834054995	72
0	2004	226.339106890963	71
0	2012	226.539483576474	72
0	2034	230.835464016387	73
0	2041	231.647532328279	72
0	2049	232.490045132564	73
0	2052	234.575438376631	74
0	2061	235.603320671031	73
0	2069	236.226430250606	74
0	2078	237.625726865099	75
0	2079	238.589273277312	74
0	2087	239.036280267936	75
0	2093	240.555494122106	74
0	2104	241.569478447225	75
0	2117	243.457028109558	76
0	2118	243.993139578585	75
0	2121	244.545903849381	74
0	2126	244.832327067417	75
0	2135	245.382928475305	76
0	2158	247.357899229404	77
0	2213	254.596010557503	78
0	2246	256.174440790592	79
0	2255	257.212727733974	80
0	2278	258.40436578762	79
0	2287	259.140660281293	78
0	2298	259.695259845216	79
0	2308	260.963080267061	80
0	2320	261.873443597481	81
0	2332	263.422805648337	82
0	2341	264.161800885885	83
0	2344	264.637363786293	84
0	2363	266.817628055263	85
0	2366	266.971324030985	86
0	2375	268.784331201222	87
0	2376	268.788955249151	86
0	2390	269.74223429043	87
0	2405	270.051981488276	88
0	2447	274.539220127026	89
0	2450	274.861507933933	90
0	2460	276.941573067202	89
0	2465	277.00089821969	90
0	2469	277.357422235329	89
0	2480	278.910715955928	90
0	2495	279.666085530499	91
0	2496	281.049363223579	90
0	2513	282.028446929936	91
0	2519	282.975754300485	92
0	2557	287.443550703241	93
0	2563	288.114732263783	94
0	2570	288.52978271421	95
0	2579	288.790761706402	96
0	2588	289.528120412229	97
0	2591	289.618584968803	98
0	2652	298.122221947295	99
0	2678	301.218582972755	100
0	2681	301.24596435098	101
0	2690	303.160960374913	100
0	2701	304.372081785141	101
0	2707	304.681432536651	102
0	2715	305.212141349639	103
0	2737	307.6136576416	104
0	2748	308.495876568659	105
0	2761	309.667845443577	106
0	2782	313.488370367093	107
0	2786	314.022047791397	106
0	2829	318.488265780895	107
0	2832	318.741397399584	108
0	2838	319.194110872416	109
0	2844	319.76909195168	110
0	2850	321.143237577302	111
0	2872	323.473413366727	112
0	2875	323.680436529133	113
0	2881	324.784689268957	114
0	2884	325.057164219941	115
0	2887	326.211140152069	114
0	2895	327.228654407518	115
0	2904	329.465739685639	116
0	2905	329.508998476018	115
0	2916	330.747762739883	116
0	2932	335.51926856684	117
0	2947	338.281809843603	118
0	2953	339.406249599699	119
0	2962	340.196943656687	120
0	2974	342.070496630527	119
0	2990	342.634321907669	120
0	2993	342.944555725091	121
0	2994	343.054345856897	120
0	3036	350.657731829528	121
0	3049	351.937865500513	122
0	3060	352.560221500914	121
0	3068	353.651416069463	122
0	3085	357.003123381961	121
0	3118	361.576000949115	122
0	3121	361.797436241786	123
0	3124	362.009349482466	124
0	3142	363.699951194836	125
0	3156	365.654364748995	126
0	3162	366.725060716995	127
0	3199	369.156003329766	128
0	3211	369.607904133289	129
0	3214	370.36801630681	130
0	3223	370.656579988289	131
0	3266	375.740413615533	132
0	3269	375.984152884593	133
0	3291	377.293874413552	134
0	3292	377.420147750484	133
0	3297	377.500885478301	134
0	3300	378.339044833436	135
0	3318	382.04617455109	136
0	3330	382.94626296934	137
0	3339	384.24652279059	138
0	3345	384.382911393407	139
0	3351	385.063720550101	140
0	3382	387.145487937102	141
0	3416	391.431190260799	142
0	3444	394.899041167233	143
0	3450	395.682114533748	144
0	3453	396.985496532544	145
0	3456	397.581671439299	144
0	3464	398.145763353894	145
0	3465	398.374788524298	144
0	3479	401.055301918476	145
0	3504	405.068419337476	146
0	3508	405.526810288182	145
0	3513	406.122265027834	146
0	3532	409.969937583135	145
0	3544	411.997480977086	144
0	3547	412.402137085714	143
0	3585	417.406475751505	144
0	3599	419.474434181844	145
0	3657	431.638969737619	146
0	3661	431.954323245955	145
0	3677	433.963778817371	146
0	3694	435.379172833877	147
0	3727	438.725201014574	148
0	3738	441.739052974355	149
0	3753	443.927758876968	150
0	3827	452.749499294994	149
0	3835	453.126922270446	150
0	3867	456.090273024855	149
0	3872	456.109344010014	150
0	3894	457.833199796513	149
0	3924	461.848816037491	150
0	3928	462.59447867351	149
0	3947	464.524670507941	150
0	3959	466.078422576518	149
0	3967	466.473575423516	150
0	3993	472.668025162463	149
0	3998	472.835761579402	150
0	4037	475.156338528331	149
0	4045	475.569795840435	150
0	4146	486.730603242979	149
0	4165	488.863937554558	150
0	4186	491.561424079332	149
0	4236	494.117641164218	148
0	4283	498.46747306037	149
0	4286	498.478317149322	150
0	4293	499.33230946029	149
0	4336	504.095135410633	150
0	4367	507.550974521035	149
0	4378	508.666860888499	150
0	4391	510.701942327627	149
0	4394	510.895292513625	148
0	4399	511.100701200112	149
0	4402	511.246443698647	150
0	4552	529.470471437308	149
0	4560	530.596833203712	150
0	4725	552.375823252435	149
0	4749	555.024755252412	148
0	4789	562.319490190069	149
0	4866	570.459114426323	150
0	4990	582.676795651291	149
0	4995	582.688324174794	150
0	5023	586.071085945785	149
0	5039	586.866432206384	148
0	5044	588.272372687432	149
0	5062	590.451777658189	150
0	5292	617.337534686296	149
0	5338	625.115947358773	150
0	5348	625.892969138803	149
0	5364	627.984058991886	150
0	5374	629.209262924634	149
0	5379	629.58450447989	150
0	5426	634.125870386752	149
0	5439	634.364068852372	150
0	5461	636.531088950901	149
0	5466	636.68861931033	150
0	5557	649.240024741757	149
0	5562	649.371544395399	150
0	5615	654.015750173453	149
0	5630	655.16611589672	150
0	5797	675.738788097599	149
0	5802	675.75223469726	150
0	5849	682.129669779453	149
0	5854	682.774076742005	150
0	5873	685.853068867171	149
0	5886	687.093700218617	148
0	5898	687.822294739361	147
0	5903	687.942093191982	148
0	5916	690.068568257344	149
0	5935	692.057814380059	148
0	5942	692.39786664367	147
0	5959	695.673392617945	148
0	5966	696.566459897944	149
0	5969	696.71805132078	150
0	5979	697.176887857608	149
0	5997	698.841992660675	150
0	6001	699.547484821059	149
0	6007	700.370501898244	148
0	6022	702.180666891772	149
0	6025	702.190334851488	150
0	6049	706.812343924927	149
0	6085	712.390928025516	150
0	6092	714.012086104049	149
0	6098	714.633866248923	148
0	6121	717.081794027073	149
0	6171	721.199455176957	150
0	6202	724.10944634406	149
0	6211	724.554138738162	148
0	6225	726.493505794259	149
0	6241	727.711417704471	150
0	6307	735.515645315989	149
0	6316	735.846520407086	150
0	6354	740.779718257343	149
0	6371	741.740851231083	150
0	6377	742.248352681555	149
0	6380	742.915397817668	148
0	6383	743.110007312411	147
0	6416	745.536329862889	148
0	6435	746.772503322447	149
0	6444	748.840099405701	150
0	6574	761.322425903749	149
0	6580	762.166499963635	148
0	6585	762.276133714908	149
0	6588	762.574263296159	150
0	6610	765.652717754991	149
0	6632	768.351429859857	150
0	6796	785.818545536421	149
0	6832	791.277894895021	150
0	6854	792.893620526971	149
0	6869	794.396809652432	150
0	6925	803.226032684583	149
0	6936	803.760123097805	150
0	7031	816.568342471182	149
0	7043	817.323463825071	150
0	7047	817.990108962894	149
0	7052	818.089236379932	150
0	7274	844.529426483424	149
0	7303	848.301699942401	150
0	7414	865.968336536677	149
0	7457	869.222983255736	150
0	7483	871.603436120799	149
0	7488	872.161356522502	150
0	7489	872.184415880978	149
0	7497	872.453733033122	150
0	7507	873.668550897054	149
0	7515	874.372900479179	150
0	7685	893.285097662735	149
0	7738	903.519528916168	150
0	7745	904.28446853258	149
0	7756	905.032705301326	148
0	7765	906.510819366374	147
0	7776	907.034806260431	148
0	7779	908.026935560802	149
0	7798	910.356418303536	150
0	7848	915.836428671217	149
0	7868	917.787524155301	150
0	7917	923.194001576264	149
0	7922	924.449731258764	150
0	7941	926.560639758433	149
0	7955	927.759411006472	150
0	8106	943.647625448766	149
0	8132	949.055656476304	148
0	8135	949.411542923595	147
0	8140	949.706490984722	148
0	8143	949.881970710412	149
0	8146	950.217035052883	150
0	8191	955.320450382801	149
0	8207	958.973262221889	150
0	8260	967.49187861607	149
0	8292	970.446928116422	150
0	8360	976.630668799848	149
0	8371	977.340829257153	150
0	8421	984.37827797047	149
0	8441	987.178530813773	150
0	8493	992.61176047299	149
0	8520	995.553603613703	150
0	8533	997.383442260853	149
0	8566	1000.170849260166	150
0	8841	1029.265394695184	149
0	8846	1029.385105161638	150
0	8935	1039.332879157176	149
0	8961	1041.569528561541	150
0	9091	1056.458211790216	149
0	9096	1056.63208535993	150
0	9173	1067.138277320847	149
0	9190	1069.456551259151	150
0	9209	1073.534892606537	149
0	9221	1075.839455059763	150
0	9242	1077.537747915302	149
0	9276	1080.355515212498	150
0	9311	1083.169943975251	149
0	9335	1089.533355219061	148
0	9402	1096.171177628701	149
0	9407	1096.383878371454	150
0	9451	1102.859782054752	149
0	9461	1103.46142473118	150
0	9518	1109.100374165132	149
0	9529	1110.074885675301	150
0	9540	1110.923280192212	149
0	9583	1115.693301680829	150
0	9593	1117.693134456288	149
0	9601	1117.996485203196	150
0	9873	1147.484756222682	149
0	9881	1148.102896860397	150
0	9882	1148.463182172483	149
0	9887	1148.551938257566	150
0	9944	1156.992258269006	149
0	9961	1158.499072007659	150
0	10104	1176.308370302717	149
0	10115	1176.47904451646	150
0	10152	1182.465109109378	149
0	10160	1182.891212847994	150
0	10230	1191.636411583882	149
0	10235	1191.682596738606	150
0	10318	1202.55151939655	149
0	10321	1203.142060478136	148
0	10326	1203.593901258189	149
0	10329	1203.628649496304	150
0	10345	1204.939591692369	149
0	10356	1205.485037130314	150
0	10530	1232.958920251086	149
0	10538	1233.76376431178	150
0	10568	1238.094120717672	149
0	10584	1239.834432034738	150
0	10585	1239.96245095134	149
0	10593	1242.871753464544	150
0	10610	1245.290782050577	149
0	10643	1249.480721023194	150
0	10874	1271.035802385054	149
0	10879	1271.81539324026	150
0	10900	1273.552213521084	149
0	10908	1273.733694643796	150
0	11010	1287.422333153273	149
0	11019	1287.69697630993	150
0	11037	1291.722109640036	149
0	11050	1292.958029184434	150
0	11053	1293.866523069706	149
0	11061	1294.987084647326	150
0	11128	1304.130799345835	149
0	11156	1305.741137977286	150
0	11160	1307.186488076928	149
0	11177	1308.807461460896	150
0	11309	1324.657737652467	149
0	11343	1329.845399488894	148
0	11348	1330.236425935146	149
0	11352	1330.550048526679	148
0	11379	1334.714911269067	147
0	11391	1335.541776060784	146
0	11422	1339.798126147153	145
0	11445	1341.559926547498	146
0	11455	1342.16493803086	147
0	11470	1343.39917303929	148
0	11483	1345.725562513341	147
0	11509	1348.400349912188	148
0	11510	1348.401105267191	147
0	11515	1348.842902778191	148
0	11553	1352.28402519652	149
0	11565	1355.031935582824	148
0	11574	1356.051942685798	147
0	11593	1356.967173775804	148
0	11601	1358.211161570011	149
0	11620	1362.77596139233	150
0	11669	1369.387690129035	149
0	11679	1370.859652346684	150
0	11686	1372.630899014767	149
0	11721	1376.307442467503	150
0	11794	1387.524233023182	149
0	11799	1387.839352868938	150
0	11847	1395.247466242657	149
0	11855	1395.492126259023	150
0	11937	1404.930555315877	149
0	11949	1408.280139799971	148
0	11954	1408.439346794791	149
0	11988	1412.231249052678	150
0	12015	1415.393830602033	149
0	12018	1415.462863291786	148
0	12043	1416.881798771534	149
0	12075	1423.770747337162	150
0	12164	1437.855441164891	149
0	12178	1439.225002042219	150
0	12212	1446.594036586378	149
0	12242	1450.382700090274	148
0	12250	1451.810086895762	149
0	12260	1453.333387036295	150
0	12359	1462.428073866341	149
0	12364	1462.861193926326	150
0	12499	1480.999902347276	149
0	12520	1483.044643232728	148
0	12526	1483.771833255023	147
0	12533	1484.659059547832	146
0	12538	1484.935065440587	147
0	12548	1485.490529733282	148
0	12572	1487.411181573121	149
0	12588	1489.1883100204	150
0	12616	1494.377326496898	149
0	12663	1499.1450681588	150
0	12839	1517.49670751618	149
0	12851	1518.753047653288	150
0	13105	1548.790290511693	149
0	13114	1549.024088058474	150
0	13190	1557.070931989317	149
0	13201	1559.529960178008	150
0	13268	1564.613190694837	149
0	13298	1566.277949386944	148
0	13373	1574.506397589861	149
0	13416	1578.645879086786	148
0	13432	1579.733873601937	149
0	13441	1580.322340448666	150
0	13565	1595.976381373	149
0	13570	1596.14650979714	150
0	13616	1603.138062922931	149
0	13621	1603.378233608547	150
0	13622	1604.057574527298	149
0	13657	1606.461832074866	150
0	13673	1608.705803921044	149
0	13702	1610.877427418233	150
0	13729	1615.025361199391	149
0	13754	1619.35163451355	150
0	13987	1642.59970046584	149
0	14004	1643.941997840012	150
0	14123	1657.612907404649	149
0	14144	1660.063952397045	150
0	14175	1663.532060993951	149
0	14209	1666.104370865684	150
0	14313	1676.804724173886	149
0	14318	1676.832355572562	150
0	14336	1678.861672002028	149
0	14347	1679.828465103776	150
0	14348	1680.65450002965	149
0	14402	1689.462143166666	150
0	14538	1703.574555325454	149
0	14546	1703.885591443757	150
0	14744	1730.349101626099	149
0	14755	1732.156544333973	150
0	14828	1741.861976116061	149
0	14854	1744.832323079005	150
0	15049	1766.363952902457	149
0	15066	1769.668573341421	150
0	15081	1771.962961192154	149
0	15107	1774.896883038603	150
0	15269	1799.146684926323	149
0	15299	1803.075661444789	150
0	15362	1810.724280149577	149
0	15383	1813.420508657897	148
0	15389	1813.977279415868	147
0	15400	1815.626223354826	148
0	15406	1816.028005633984	149
0	15432	1818.672139078793	148
0	15437	1818.976266232421	149
0	15440	1819.674836910095	150
0	15465	1823.445564809634	149
0	15480	1824.471676891679	150
0	15539	1831.511654286101	149
0	15547	1833.031038511044	150
0	15640	1845.55773132981	149
0	15653	1847.321481467358	150
0	15657	1847.852180846929	149
0	15662	1847.98978945826	150
0	15743	1858.048070499583	149
0	15775	1861.872041644806	150
0	15820	1866.251333000207	149
0	15839	1867.335259393642	150
0	15877	1870.067234850464	149
0	15914	1874.486699855474	148
0	15923	1874.977505634857	149
0	15930	1875.886588846826	150
0	15937	1876.473315974329	149
0	16002	1882.38796445095	150
0	16042	1887.203802643921	149
0	16047	1887.398063812771	150
0	16062	1888.438874417032	149
0	16092	1892.682246806716	148
0	16101	1892.900534565858	149
0	16123	1896.778110182862	150
0	16161	1901.327286841543	149
0	16191	1904.308156697125	150
0	16300	1916.811466642231	149
0	16303	1917.466157345239	148
0	16311	1918.135899811294	149
0	16344	1921.811095810586	150
0	16463	1936.9094064697	149
0	16477	1937.40825941764	148
0	16497	1940.136347510098	149
0	16503	1941.784084768483	150
0	16504	1942.656894015155	149
0	16533	1944.92898033396	150
0	16670	1962.041326821561	149
0	16675	1962.325145729138	150
0	16732	1967.68138655697	149
0	16735	1967.754320874848	148
0	16761	1969.176617124336	149
0	16815	1974.873015582006	150
0	16870	1981.742356741768	149
0	16897	1986.631822350587	150
0	16957	1994.852994972866	149
0	16974	1997.734014605751	150
0	17123	2013.433629360618	149
0	17128	2013.775397739057	150
0	17189	2022.722375051679	149
0	17203	2024.28349772493	150
0	17278	2033.726077985149	149
0	17296	2036.033599954512	150
0	17312	2038.14516828393	149
0	17317	2038.835235600577	150
0	17337	2041.480721851023	149
0	17345	2042.630681386662	150
0	17356	2043.963886750353	149
0	17367	2044.769647495985	150
0	17383	2046.546635282173	149
0	17388	2046.562832777849	150
0	17489	2058.640437702632	149
0	17502	2059.2046324527	150
0	17917	2104.363646228908	149
0	17928	2106.563983415189	150
0	17994	2116.965829735384	149
0	17997	2117.019378424841	148
0	18037	2122.654452095499	149
0	18038	2122.829611055113	148
0	18041	2123.160733675563	147
0	18058	2125.202313809059	148
0	18069	2125.933069041017	149
0	18072	2127.046499207246	150
0	18121	2133.635213862158	149
0	18144	2136.159166052867	150
0	18172	2141.475940590127	149
0	18186	2142.298213623436	150
0	18187	2142.640401507518	149
0	18213	2147.689464056594	150
0	18223	2148.354795017803	149
0	18228	2148.838094229347	150
0	18232	2150.350272482575	149
0	18247	2151.383627155594	148
0	18252	2151.485802777881	149
0	18264	2153.882071845496	150
0	18418	2176.96748770149	149
0	18432	2178.221135791994	150
0	18455	2180.532332016006	149
0	18460	2181.033800000322	150
0	18469	2181.7389555481	149
0	18474	2182.426612167317	150
0	18686	2207.692797411869	149
0	18691	2208.122197593065	150
0	18698	2208.382744801433	149
0	18706	2209.004458138073	150
0	18731	2212.018347022279	149
0	18742	2212.296522722788	150
0	18877	2229.919520705542	149
0	18885	2230.397002939789	150
0	18927	2234.289436692455	149
0	18984	2241.16561397409	150
0	19148	2259.019091916902	149
0	19160	2260.570930529051	150
0	19310	2278.016326041236	149
0	19316	2278.954225843959	148
0	19321	2280.2847199475	149
0	19324	2280.668321545926	150
0	19334	2282.943343545764	149
0	19342	2284.191035776281	150
0	19432	2294.43490337448	149
0	19440	2295.145311248887	150
0	19528	2301.793029732907	149
0	19533	2302.173516487397	150
0	19615	2309.933115661369	149
0	19652	2314.029134860212	150
0	19756	2324.218909714082	149
0	19771	2325.380942321592	150
0	19801	2328.501177914462	149
0	19809	2329.189787909799	150
0	19827	2332.143688054378	149
0	19841	2334.136998906964	150
0	20110	2366.63294277007	149
0	20123	2369.394559945296	150
0	20160	2372.66792795989	149
0	20165	2373.50774321206	150
0	20222	2378.73324838637	149
0	20245	2380.58188182364	150
0	20246	2380.757806771114	149
0	20257	2382.398503063874	150
0	20405	2396.864524287847	149
0	20410	2397.334792486474	150
0	20431	2399.47658906802	149
0	20449	2400.875430666869	150
0	20470	2403.743515711167	149
0	20482	2404.288461745198	150
0	20526	2409.417361795653	149
0	20535	2410.527712362709	148
0	20547	2410.952820550381	149
0	20580	2413.430918521891	150
0	20593	2414.997585586526	149
0	20601	2415.202273434399	150
0	20876	2445.054148348169	149
0	20900	2448.477743826363	150
0	21026	2463.634325431923	149
0	21043	2465.439893015404	150
0	21065	2469.109738983504	149
0	21073	2469.553748839472	150
0	21102	2472.307053633553	149
0	21110	2472.624812885951	150
0	21181	2480.289862101388	149
0	21196	2481.959594044187	150
0	21227	2484.153745706328	149
0	21238	2485.649074991531	150
0	21246	2486.177261079379	149
0	21254	2488.951866332788	150
0	21258	2490.203481052106	149
0	21263	2490.480488046104	150
0	21324	2496.921464139183	149
0	21343	2499.023981462197	148
0	21348	2499.235892494316	149
0	21374	2502.821265396556	150
0	21426	2507.782068048681	149
0	21468	2511.201952743466	150
0	21547	2520.832614610602	149
0	21555	2521.670445531251	150
0	21564	2523.788307137356	149
0	21569	2524.336397709175	150
0	21580	2525.575609676845	149
0	21586	2526.179001160109	148
0	21607	2528.750759315962	149
0	21625	2530.570023284143	150
0	21781	2553.226707968571	149
0	21798	2556.596078513737	150
0	21802	2556.95057721078	149
0	21807	2557.255301524855	150
0	21830	2560.855920519354	149
0	21850	2563.808626769606	150
0	21955	2575.015882873905	149
0	21972	2577.389931231018	150
0	22206	2601.155199900941	149
0	22209	2601.476485789296	148
0	22242	2603.188253984612	149
0	22259	2604.981100657329	150
0	22266	2605.852110296363	149
0	22271	2605.902470471212	150
0	22275	2606.466621933767	149
0	22283	2606.599440644351	150
0	22311	2609.451867117662	149
0	22316	2609.595058991469	150
0	22329	2610.107241181575	149
0	22349	2612.160670259807	150
0	22524	2634.166324961734	149
0	22529	2634.614729610381	150
0	22566	2639.39176223758	149
0	22581	2640.018755609387	150
0	22662	2649.540045267264	149
0	22667	2650.019201896891	150
0	22711	2654.578154462163	149
0	22722	2655.73745448843	150
0	22776	2664.393365155655	149
0	22781	2665.156189311021	150
0	22849	2669.41329543875	149
0	22871	2673.487314428037	150
0	22933	2684.147796605451	149
0	22938	2684.249705449069	150
0	22962	2688.410745877023	149
0	22970	2689.389754972432	150
0	22986	2694.443098958265	149
0	22994	2695.200277463206	150
0	23022	2699.124179962264	149
0	23062	2702.328904299668	150
0	23091	2707.015128572182	149
0	23094	2707.07547654733	148
0	23099	2707.500847523057	149
0	23108	2708.201602765478	150
0	23211	2721.3281046035	149
0	23223	2722.738565442834	150
0	23275	2730.571446065669	149
0	23280	2730.591060681615	150
0	23417	2743.801426428914	149
0	23442	2746.626058412612	150
0	23466	2748.747712396613	149
0	23476	2749.872400995411	150
0	23558	2758.921819830921	149
0	23578	2763.514006906828	150
0	23586	2763.730385669873	149
0	23592	2764.352395613526	148
0	23597	2764.56184786319	149
0	23606	2765.229075826073	150
0	23616	2766.566919723461	149
0	23621	2766.821577191096	150
0	23655	2769.562777288606	149
0	23664	2770.76348247191	150
0	23712	2775.061837740476	149
0	23741	2782.662850966284	148
0	23770	2785.387237586741	149
0	23776	2786.428929674718	150
0	23795	2788.344016006528	149
0	23800	2788.646879679931	150
0	23848	2793.671161498146	149
0	23866	2796.69411407892	150
0	23951	2805.568769202847	149
0	23960	2805.772090094639	148
0	23965	2805.802388682163	149
0	23968	2806.332264589738	150
0	24005	2809.52597221961	149
0	24023	2812.351515984349	150
0	24234	2837.716496789758	149
0	24256	2840.804083449921	150
0	24272	2842.507041512723	149
0	24277	2842.566538377552	150
0	24287	2844.347003901219	149
0	24305	2846.078418052083	150
0	24388	2855.293798692278	149
0	24416	2857.089169030286	148
0	24436	2858.667569323316	149
0	24455	2860.066551628869	150
0	24483	2862.50108735654	149
0	24494	2863.601471745444	150
0	24578	2872.451465288859	149
0	24600	2874.312799543885	150
0	24769	2892.602944391709	149
0	24777	2892.968071546425	150
0	24778	2894.184928852693	149
0	24785	2895.886390473892	150
0	24867	2904.900052782405	149
0	24887	2906.585868798139	150
0	24891	2907.206168287386	149
0	24910	2910.857669712828	148
0	24929	2911.968107385664	147
0	24932	2912.611996652621	146
0	24935	2912.665164859727	145
0	24940	2913.17620950506	146
0	24946	2913.746187973963	147
0	24970	2917.474120307635	148
0	24988	2919.973818969693	149
0	24989	2920.270268002823	148
0	24992	2920.455224787778	147
0	25017	2923.526703984863	148
0	25020	2923.700863698297	149
0	25027	2924.473405984253	148
0	25035	2924.969486207505	149
0	25038	2925.399467904894	150
0	25412	2967.206225915259	149
0	25423	2967.986911552007	150
0	25424	2968.071255533723	149
0	25438	2970.826521742488	150
0	25480	2974.260048130429	149
0	25500	2975.790210728161	150
0	25521	2977.410655126586	149
0	25526	2979.667115690423	150
0	25589	2988.592504969382	149
0	25601	2992.916684701013	150
0	25649	3006.809973621165	149
0	25657	3009.203008056213	150
0	25776	3024.709799431113	149
0	25794	3026.766043768241	150
0	25815	3031.762292473828	149
0	25821	3032.752345024738	148
0	25829	3034.610967487966	147
0	25834	3035.210911290089	148
0	25846	3035.682221787201	147
0	25851	3035.706936926605	148
0	25861	3036.524655713431	149
0	25882	3038.174492389375	150
0	25918	3042.440600184862	149
0	25928	3043.986320569066	150
0	25932	3045.028088523531	149
0	25937	3045.690865171014	150
0	25973	3054.400631071663	149
0	25981	3054.785762548524	150
0	26022	3061.64759909856	149
0	26033	3062.794719610496	150
0	26075	3066.441346699162	149
0	26109	3070.912687632869	150
0	26113	3071.327146151283	149
0	26128	3073.242895022883	150
0	26160	3080.783821173242	149
0	26165	3081.953836909416	150
0	26188	3085.811814830503	149
0	26197	3086.054065562504	150
0	26248	3091.980043485404	149
0	26253	3093.12048112231	150
0	26293	3101.191002052747	149
0	26304	3103.395563179009	150
0	26308	3104.964727927372	149
0	26317	3106.901644545824	150
0	26342	3111.941625150787	149
0	26351	3114.253685816659	150
0	26359	3116.104693199112	149
0	26367	3116.913623521446	150
0	26384	3120.646022493129	149
0	26389	3121.098483245021	150
0	26390	3123.303412303959	149
0	26405	3127.776128760589	150
0	26604	3155.033051831082	149
0	26615	3155.742520683339	150
0	26809	3185.478688384138	149
0	26817	3186.453723510176	150
0	26829	3188.463794241069	149
0	26842	3189.972631557937	150
0	26855	3194.546428702439	149
0	26874	3195.967521915186	150
0	26879	3196.693606635115	149
0	26884	3198.032639922581	150
0	26900	3202.0369912966	149
0	26918	3203.579600439826	150
0	26937	3206.661613119163	149
0	26942	3206.816449530581	150
0	27039	3229.223937268074	149
0	27061	3231.545832583932	150
0	27100	3235.525328893046	149
0	27103	3235.569628455619	148
0	27112	3235.972882745363	149
0	27118	3239.549883222518	150
0	27249	3266.216488568836	149
0	27252	3266.771040022925	148
0	27258	3267.481133834434	147
0	27261	3268.406064129801	146
0	27269	3269.656326901962	147
0	27270	3269.91828044503	146
0	27288	3272.202453644473	147
0	27294	3272.748689012692	148
0	27297	3273.345655718601	149
0	27322	3279.117286249601	150
0	27343	3284.365207319388	149
0	27353	3285.119032768908	150
0	27487	3313.177849273475	149
0	27511	3316.552717825976	150
0	27555	3323.482203500719	149
0	27558	3324.729567423761	148
0	27584	3328.114688849276	149
0	27587	3328.473414367212	150
0	27591	3330.765078276579	149
0	27597	3331.557914936063	148
0	27627	3339.324967471161	149
0	27670	3350.320914450252	150
0	27710	3360.584418229648	149
0	27735	3365.281828215388	150
0	27736	3365.469937619458	149
0	27739	3367.003364980212	148
0	27764	3370.317367510363	147
0	27770	3373.772845242941	146
0	27778	3375.643233769514	147
0	27797	3376.918599701377	148
0	27800	3377.080782698882	149
0	27803	3377.136428593367	150
0	27804	3377.504973023516	149
0	27807	3379.362080117605	148
0	27812	3379.598175719567	149
0	27819	3380.135365224529	150
0	27832	3381.240996081065	149
0	27837	3381.24883773635	150
0	27889	3387.990894471804	149
0	27894	3388.143212449861	150
0	27917	3389.614193901411	149
0	27920	3390.215177961174	148
0	27941	3392.834096379626	149
0	27955	3395.629637424712	150
0	27963	3398.917921653559	149
0	27971	3399.757891333018	148
0	27986	3402.700297771683	147
0	27991	3403.012566212479	148
0	28000	3406.531117636854	149
0	28006	3409.622735997462	150
0	28057	3420.31445077747	149
0	28062	3420.484644244575	150
0	28121	3434.508445110799	149
0	28126	3434.838987413175	150
0	28222	3454.623583094242	149
0	28240	3459.974099661095	148
0	28245	3460.487368742072	149
0	28253	3462.596100619958	150
0	28305	3470.524399855076	149
0	28317	3471.288732854816	150
0	28364	3479.034629786476	149
0	28376	3480.614098962397	150
0	28407	3485.791497368867	149
0	28415	3486.52829422833	150
0	28563	3511.040491981119	149
0	28568	3511.625833654847	150
0	28624	3523.981968053788	149
0	28637	3526.347592085845	150
0	28644	3527.443916923762	149
0	28663	3528.65838376848	148
0	28671	3529.646282360216	149
0	28674	3530.142926527514	150
0	28701	3536.819248542781	149
0	28732	3539.579289666106	150
0	28756	3542.870540649561	149
0	28769	3545.716254981114	150
0	28907	3581.962193083789	149
0	28940	3585.772035258769	150
0	29006	3593.473465195205	149
0	29015	3594.01217710364	150
0	29111	3617.132134171066	149
0	29118	3620.620925575396	150
0	29125	3623.914449401273	149
0	29133	3625.428303040457	150
0	29134	3626.296077974676	149
0	29145	3629.664492682697	150
0	29235	3647.170221712868	149
0	29250	3650.042343483183	150
0	29257	3651.019491853222	149
0	29272	3655.951540996995	148
0	29281	3657.058824412663	149
0	29298	3657.833581962345	150
0	29345	3665.379350290356	149
0	29350	3667.092889423238	150
0	29372	3674.007821351237	149
0	29377	3674.115447151509	150
0	29391	3677.358506129643	149
0	29399	3677.642131825691	150
0	29421	3682.712775302007	149
0	29428	3684.73010383129	150
0	29466	3688.708665751166	149
0	29477	3689.767944344691	150
0	29500	3694.371464678078	149
0	29523	3700.154097220794	148
0	29528	3702.502262518764	149
0	29534	3703.208285107811	150
0	29551	3708.505222906818	149
0	29556	3708.786123699624	150
0	29634	3723.631863554617	149
0	29639	3724.103355058414	150
0	29714	3735.378116822186	149
0	29719	3735.458848126715	150
0	29778	3747.047494798434	149
0	29787	3747.963497601057	150
0	29853	3762.333609049909	149
0	29866	3763.030267549689	150
0	29874	3764.246746482348	149
0	29891	3764.511831329396	150
0	29989	3781.755186018553	149
0	29995	3782.955114375007	148
0	30006	3785.33893132039	149
0	30014	3786.97286537134	150
0	30021	3787.884388243398	149
0	30024	3788.279711700463	148
0	30040	3790.521243568259	149
0	30047	3793.157052751227	148
0	30052	3794.350300926759	149
0	30060	3795.398073040951	150
0	30083	3803.109745237705	149
0	30089	3803.98381516593	148
0	30094	3804.167675437462	149
0	30097	3804.53280176607	150
0	30145	3810.871334795402	149
0	30150	3811.926395652373	150
0	30163	3815.352473655926	149
0	30171	3816.022112406734	150
0	30183	3818.13786164064	149
0	30208	3824.263207120279	150
0	30216	3825.8641244793	149
0	30244	3829.336551794327	150
0	30306	3837.511907004161	149
0	30316	3837.898739378574	150
0	30322	3839.988075759011	149
0	30341	3842.196160083619	150
0	30350	3843.28080329333	149
0	30360	3844.367557789205	150
0	30427	3853.930545601384	149
0	30438	3856.936414369847	150
0	30539	3872.961701958324	149
0	30566	3878.310457126527	150
0	30592	3886.308910996725	149
0	30597	3886.683392459127	150
0	30613	3892.501989846034	149
0	30618	3892.65814175653	150
0	30702	3913.498373262776	149
0	30719	3915.136308987515	150
0	30750	3920.161094647569	149
0	30755	3920.53878640117	150
0	30756	3920.967359799534	149
0	30761	3923.285584180462	150
0	30762	3923.880911486063	149
0	30773	3926.13417594454	150
0	30839	3935.084266112948	149
0	30847	3936.488485909356	148
0	30855	3937.123263196381	149
0	30856	3938.076779071671	148
0	30863	3939.37642871618	149
0	30866	3939.435969092859	150
0	30895	3943.998712830134	149
0	30902	3944.410570780644	150
0	30999	3958.052076932495	149
0	31011	3959.601687323011	150
0	31022	3963.057079477039	149
0	31030	3965.844072131628	150
0	31031	3973.954035727189	149
0	31039	3975.185415170957	150
0	31049	3976.60936159582	149
0	31056	3979.510258025353	148
0	31077	3981.415697461997	149
0	31080	3981.554274979199	150
0	31178	3999.441851512154	149
0	31195	4003.265641289669	150
0	31397	4048.913804804694	149
0	31402	4049.172897040961	150
0	31403	4049.194165080359	149
0	31411	4049.995553895851	150
0	31469	4065.842139898392	149
0	31482	4069.201579038302	148
0	31499	4073.123186394226	149
0	31502	4073.782987870985	150
0	31503	4074.794021469432	149
0	31538	4080.200603667622	150
0	31559	4083.007425735709	149
0	31576	4085.582632143432	150
0	31577	4085.782777658321	149
0	31585	4086.620743767009	150
0	31607	4090.677541001733	149
0	31610	4091.286753762515	148
0	31629	4093.336943332082	149
0	31630	4094.118725673735	148
0	31645	4099.071210212366	149
0	31651	4100.382029408736	150
0	31658	4101.163482244721	149
0	31704	4111.782132352523	150
0	31708	4112.334693489139	149
0	31711	4112.706769515345	148
0	31716	4112.783859308858	149
0	31727	4115.549719333684	150
0	31730	4117.204682280873	149
0	31738	4118.199776578424	150
0	31747	4119.785216422744	149
0	31755	4120.638204941804	150
0	31763	4122.611379599725	149
0	31768	4123.03928205331	150
0	32009	4175.508088299179	149
0	32018	4176.111810004088	150
0	32066	4187.144299308828	149
0	32071	4187.580878418478	150
0	32072	4187.857394291707	149
0	32082	4188.4899209231	150
0	32125	4197.924981852876	149
0	32133	4199.854226988429	150
0	32212	4214.302244197731	149
0	32217	4214.415134585587	150
0	32224	4216.865630701307	149
0	32227	4217.022734353306	148
0	32232	4217.217148690679	149
0	32247	4221.579964462305	148
0	32250	4221.973045739807	147
0	32255	4222.155336820389	148
0	32258	4222.367113004453	149
0	32281	4227.494207233191	148
0	32284	4229.436129676494	147
0	32292	4229.969721112716	148
0	32307	4232.056702922781	149
0	32310	4233.037089213343	150
0	32322	4236.036443861411	149
0	32343	4240.561955891778	150
0	32385	4248.813653005373	149
0	32388	4249.68183013282	148
0	32395	4253.565397016637	147
0	32403	4254.867543939012	148
0	32419	4255.818688177372	147
0	32422	4256.162657049721	146
0	32427	4256.364034897678	147
0	32452	4262.196659489256	148
0	32455	4262.431907760184	149
0	32458	4263.05387219102	150
0	32499	4275.260700896908	149
0	32508	4276.971469916711	150
0	32509	4277.329125346127	149
0	32520	4279.177372884751	150
0	32547	4284.704507167281	149
0	32559	4286.120963949987	150
0	32563	4286.522927414043	149
0	32572	4287.189472603143	150
0	32736	4310.299663449281	149
0	32741	4310.334143866997	150
0	32769	4314.036681657239	149
0	32781	4316.678869245661	150
0	32894	4335.61199197552	149
0	32912	4337.099417806593	150
0	32988	4350.021985778621	149
0	32993	4350.575986373983	150
0	33000	4352.104170305062	149
0	33005	4354.262104174823	150
0	33034	4362.647459269024	149
0	33047	4363.521144190947	150
0	33077	4369.574704384938	149
0	33084	4370.059477421046	150
0	33085	4370.611669345764	149
0	33088	4370.745921914241	148
0	33093	4373.786159574471	149
0	33094	4374.217360488826	148
0	33109	4376.09937076481	149
0	33121	4376.933830902089	150
0	33131	4379.017816106032	149
0	33144	4381.15200824777	150
0	33145	4381.403141097808	149
0	33163	4385.736088723673	150
0	33210	4398.780432251031	149
0	33219	4399.010705605842	150
0	33263	4409.302247888509	149
0	33274	4411.968973226385	150
0	33275	4412.423631475474	149
0	33278	4412.641639841048	148
0	33283	4412.732859060239	149
0	33298	4416.810236323463	150
0	33351	4433.629022141099	149
0	33360	4435.052237843419	150
0	33374	4437.157128778196	149
0	33383	4439.866896927303	150
0	33466	4461.604343616778	149
0	33477	4462.809173422508	150
0	33497	4467.466328846442	149
0	33503	4468.18719213821	148
0	33527	4471.967885265937	149
0	33530	4472.006721478227	150
0	33585	4482.553201691863	149
0	33592	4483.576901945182	148
0	33597	4484.672057544577	149
0	33600	4485.417564654306	150
0	33609	4487.578748486761	149
0	33614	4488.513095556698	150
0	33686	4499.307025143499	149
0	33691	4500.336782331347	150
0	33736	4507.923322931974	149
0	33742	4508.347100084237	148
0	33751	4511.27713676581	149
0	33791	4519.325453989556	150
0	33898	4538.180152992321	149
0	33905	4539.192872359278	150
0	33938	4542.890624523028	149
0	33947	4546.460313659845	150
0	33948	4547.204529946555	149
0	33958	4547.528262985501	150
0	34012	4558.169896816199	149
0	34017	4558.310424945311	150
0	34021	4560.6152485872	149
0	34031	4563.5974314016	148
0	34036	4563.597953598229	149
0	34039	4564.321226157366	150
0	34067	4570.882973827395	149
0	34093	4573.014571428369	148
0	34098	4573.141844561709	149
0	34111	4574.07264125028	150
0	34215	4591.823728625458	149
0	34223	4592.779853587007	150
0	34250	4601.843503532406	149
0	34273	4606.058327274761	150
0	34286	4608.04990006642	149
0	34291	4608.267804561362	150
0	34329	4617.714065871901	149
0	34334	4618.337390444966	150
0	34357	4628.9364673627	149
0	34373	4630.715223910886	150
0	34526	4663.744333926607	149
0	34531	4663.770691224906	150
0	34620	4689.541331766233	149
0	34634	4693.275677196396	148
0	34647	4694.141106008139	149
0	34658	4694.722092899049	150
0	34870	4727.495955357061	149
0	34879	4733.346478696114	148
0	34882	4733.943610716303	147
0	34885	4734.108186011014	146
0	34890	4734.710092261085	147
0	34891	4734.882994953906	146
0	34894	4735.985413663365	145
0	34902	4736.36665554183	146
0	34905	4737.504274928781	147
0	34914	4739.627422603282	148
0	34930	4741.391479832562	149
0	34951	4744.537617994408	150
0	34952	4744.872567035729	149
0	34962	4746.748539167447	148
0	34967	4747.08752139096	149
0	34968	4747.414843313566	148
0	34982	4750.496102403781	149
0	34985	4751.304979300231	150
0	34995	4753.825792036681	149
0	35000	4754.133748310324	150
0	35029	4762.69344847314	149
0	35034	4763.178269562484	150
0	35094	4770.264041301068	149
0	35103	4772.460329277952	150
0	35146	4786.935576157716	149
0	35160	4789.878119919995	150
0	35306	4813.157129589814	149
0	35315	4815.691699932285	148
0	35320	4816.03856893758	149
0	35323	4819.224064527204	150
0	35367	4827.155490363157	149
0	35375	4828.943835573742	150
0	35376	4829.917007818345	149
0	35384	4831.284562048417	150
0	35423	4838.611574249036	149
0	35432	4839.59289699654	150
0	35457	4843.514066388409	149
0	35470	4844.747104159084	150
0	35585	4866.488511429482	149
0	35590	4866.661307740633	150
0	35612	4871.196059148461	149
0	35617	4871.272887669315	150
0	35730	4889.567926261358	149
0	35735	4890.056379890366	150
0	35773	4896.07471784501	149
0	35785	4898.472063142076	150
0	35786	4899.338106753084	149
0	35791	4899.81993380206	150
0	35844	4909.667309446135	149
0	35849	4909.703409848937	150
0	35866	4913.18566119586	149
0	35901	4919.552594048159	150
0	35906	4920.791390038123	149
0	35909	4922.231291429269	148
0	35917	4922.539060931294	149
0	35923	4924.100822984915	150
0	35945	4931.038023998601	149
0	35960	4933.121575989295	150
0	35993	4938.751921119557	149
0	35998	4939.03104650967	150
0	36035	4950.326346790729	149
0	36043	4951.2555200913	148
0	36048	4951.580617900215	149
0	36051	4952.719886546646	150
0	36140	4969.088772172463	149
0	36145	4969.328637288877	150
0	36199	4983.904367598274	149
0	36216	4985.267299248136	150
0	36233	4989.278631909257	149
0	36261	4992.664641444497	150
0	36265	4993.595570152779	149
0	36274	4994.17834308321	150
0	36299	5000.388031257096	149
0	36320	5003.125346252701	150
0	36402	5020.904155124706	149
0	36408	5021.00076312506	148
0	36413	5022.565370353792	149
0	36424	5024.44051866905	150
0	36441	5031.129620883697	149
0	36448	5032.411298895388	148
0	36458	5034.986575162447	147
0	36469	5035.951625485875	148
0	36485	5038.473502499657	149
0	36498	5039.997667678787	150
0	36565	5054.549915843594	149
0	36570	5054.97407760179	150
0	36573	5056.437148973348	149
0	36584	5057.12120176807	150
0	36594	5061.019820797788	149
0	36602	5062.505170821696	148
0	36607	5062.715955390315	149
0	36613	5063.231333907934	150
0	36614	5064.194449805805	149
0	36619	5064.217544147759	150
0	36620	5066.259749619352	149
0	36628	5066.608434557309	150
0	36640	5071.114887694836	149
0	36648	5071.843809771875	150
0	36694	5080.277281212272	149
0	36702	5080.956305248459	150
0	36795	5095.102323250036	149
0	36805	5096.930858129714	150
0	36810	5097.254685178545	149
0	36815	5099.034311060357	150
0	36819	5100.433017915706	149
0	36837	5103.383267107293	150
0	36855	5108.087410694301	149
0	36875	5109.610349325848	150
0	36930	5117.683779865075	149
0	36943	5123.001657596841	150
0	36961	5128.720630219889	149
0	36968	5131.138453828913	150
0	36980	5134.234373751064	149
0	36990	5136.663424241114	148
0	37027	5144.261092344684	147
0	37038	5145.992458753572	148
0	37041	5146.202505105417	149
0	37053	5147.853203841407	150
0	37188	5182.811604154382	149
0	37193	5183.755916871845	150
0	37208	5186.519280415987	149
0	37223	5189.300961507907	150
0	37314	5210.472351481072	149
0	37328	5212.277767669572	148
0	37333	5212.426821401546	149
0	37336	5212.601021695591	150
0	37402	5221.430575901245	149
0	37410	5223.795620083204	150
0	37414	5227.305058783509	149
0	37441	5231.959026317497	150
0	37448	5232.834425733097	149
0	37470	5235.46384292316	150
0	37474	5236.924066270095	149
0	37479	5237.040024195242	150
0	37496	5240.139023581446	149
0	37501	5240.365754331402	150
0	37506	5242.169155188221	149
0	37518	5243.746178147187	150
0	37546	5247.235031004965	149
0	37562	5248.839675787207	150
0	37590	5257.499901499315	149
0	37612	5260.967094430281	150
0	37677	5273.145095817783	149
0	37685	5273.420822049227	150
0	37788	5303.736874966427	149
0	37791	5303.740075616067	148
0	37825	5310.406916177029	149
0	37843	5314.681758886987	150
0	37866	5319.778217687359	149
0	37887	5322.211396099444	150
0	37968	5339.152392637896	149
0	37983	5343.70304751994	150
0	37993	5346.204310831719	149
0	38015	5348.932898244695	150
0	38052	5357.913336738756	149
0	38057	5358.002749804082	150
0	38105	5369.255920694445	149
0	38110	5370.394278309132	150
0	38244	5393.383161537356	149
0	38247	5393.556294583218	148
0	38252	5393.741521148558	149
0	38274	5398.855027879707	148
0	38282	5399.865790671695	147
0	38287	5401.128677830474	148
0	38301	5403.477717842716	149
0	38304	5403.641437187816	150
0	38313	5405.364586885923	149
0	38325	5406.266110107253	150
0	38326	5406.892954077029	149
0	38338	5410.809176576087	148
0	38366	5416.33856958898	149
0	38372	5416.873559467455	150
0	38393	5420.369640180779	149
0	38401	5421.996435795281	150
0	38468	5432.858299054218	149
0	38471	5433.123552744596	148
0	38479	5433.430656431751	147
0	38484	5433.926192585313	148
0	38494	5435.004317532189	149
0	38501	5435.869748513858	150
0	38502	5436.339225465634	149
0	38510	5436.466236237244	150
0	38519	5439.916688315866	149
0	38529	5441.604159131401	150
0	38533	5441.900770742062	149
0	38544	5443.828085127133	150
0	38554	5447.128956718429	149
0	38570	5447.883441752957	150
0	38577	5449.12655115249	149
0	38585	5449.604428875062	150
0	38592	5454.696613090344	149
0	38604	5457.429344125685	150
0	38677	5468.507599797878	149
0	38684	5470.251501514895	148
0	38690	5471.67650329679	147
0	38712	5474.170279729312	148
0	38713	5475.532965820287	147
0	38724	5477.54206600382	146
0	38741	5479.939756217521	147
0	38744	5479.95728258882	148
0	38747	5480.736009531818	149
0	38753	5482.637918118057	150
0	38772	5487.87455451937	149
0	38789	5492.299861238931	150
0	38913	5518.900388692481	149
0	38918	5519.192474699908	150
0	39012	5538.722591815491	149
0	39045	5545.371571805461	150
0	39112	5555.330693682105	149
0	39115	5555.361153346929	148
0	39120	5556.074952970202	149
0	39131	5562.527956603932	150
0	39132	5563.503884890396	149
0	39137	5563.68163098407	150
0	39141	5564.603743531915	149
0	39144	5564.987497316483	148
0	39159	5566.93409822393	149
0	39168	5571.173018113098	150
0	39194	5577.26534165806	149
0	39217	5579.702777726963	150
0	39221	5580.268063363331	149
0	39229	5582.439867358638	150
0	39267	5588.683061072272	149
0	39277	5591.097955323289	150
0	39290	5593.882149358038	149
0	39298	5594.709863721237	150
0	39306	5596.309512074609	149
0	39318	5598.648690908907	148
0	39321	5598.760956150166	147
0	39350	5607.125036073436	148
0	39367	5611.09798614867	149
0	39381	5612.520343526345	150
0	39385	5613.09119374184	149
0	39388	5613.859825862301	148
0	39420	5617.020518869984	149
0	39423	5617.858423922103	150
0	39424	5618.026154050153	149
0	39437	5619.324336810784	148
0	39442	5620.37097800165	149
0	39455	5624.400140205134	148
0	39475	5628.24289367006	149
0	39476	5628.771076926603	148
0	39481	5629.257873885001	149
0	39482	5629.284631082201	148
0	39490	5631.263574458732	149
0	39500	5633.42107931963	150
0	39548	5639.891766758919	149
0	39556	5640.204686461276	150
0	39570	5644.158633693082	149
0	39578	5645.051567477137	150
0	39579	5645.267803430984	149
0	39597	5650.292210211072	150
0	39678	5660.179680004962	149
0	39686	5660.275367902724	148
0	39689	5660.826805788963	147
0	39697	5662.129449241497	148
0	39714	5663.995230565116	149
0	39728	5667.812388911194	150
0	39800	5683.835333462534	149
0	39805	5684.029476736703	150
0	39909	5705.634498380384	149
0	39921	5708.268712315062	150
0	39989	5721.445506003574	149
0	39992	5721.460151402398	148
0	40004	5723.058611361668	149
0	40010	5723.911814485493	150
0	40026	5725.198267296618	149
0	40046	5728.128279058196	148
0	40049	5728.592886886352	147
0	40059	5728.873821697077	148
0	40067	5730.263151635321	149
0	40074	5732.390205412303	150
0	40075	5732.652928916764	149
0	40088	5736.448572896767	150
0	40113	5739.56503030052	149
0	40119	5740.312418689387	148
0	40124	5740.573501134278	149
0	40136	5742.62214637654	150
0	40140	5742.923706409565	149
0	40150	5743.185385716846	150
0	40156	5744.79639230058	149
0	40163	5744.875078034863	150
0	40262	5769.020936700198	149
0	40270	5769.736141036728	150
0	40285	5772.699045459233	149
0	40293	5773.707421398006	150
0	40305	5774.714210703779	149
0	40310	5774.749640669508	150
0	40400	5791.754684644237	149
0	40424	5794.851534298017	150
0	40428	5795.954426515074	149
0	40448	5799.497921825342	150
0	40457	5801.506333456428	149
0	40460	5801.839210169989	148
0	40467	5805.133785612511	147
0	40472	5805.92114206717	148
0	40476	5807.03160262111	147
0	40482	5807.683468150532	146
0	40487	5807.748684765414	147
0	40510	5811.625577860954	148
0	40516	5812.512966860744	149
0	40523	5813.756368086406	148
0	40531	5816.022748143794	149
0	40537	5817.30582330682	150
0	40570	5822.955348210989	149
0	40575	5823.668315475244	150
0	40585	5825.064842286924	149
0	40592	5826.509209936792	150
0	40615	5832.333084646285	149
0	40620	5834.456909550675	150
0	40675	5839.988115841501	149
0	40680	5840.713781739208	150
0	40705	5848.732615584372	149
0	40714	5849.848415870111	148
0	40719	5851.427959208148	149
0	40742	5854.00934365233	150
0	40751	5855.175739915988	149
0	40762	5857.787221233625	150
0	40776	5861.172815077468	149
0	40803	5866.633338463282	150
0	40835	5872.459200426698	149
0	40879	5885.018568006819	150
0	40925	5895.480390749571	149
0	40936	5896.542124279198	148
0	40946	5897.061710789433	149
0	40961	5899.971773202594	150
0	40999	5905.081324887331	149
0	41013	5906.407270841405	150
0	41014	5906.834478398803	149
0	41019	5908.385659523823	150
0	41065	5916.716144575268	149
0	41070	5917.000683547339	150
0	41168	5935.204523500954	149
0	41179	5938.110091331383	148
0	41195	5940.381157462365	147
0	41211	5942.50663867514	148
0	41220	5942.90484459409	149
0	41223	5942.937680384179	150
0	41287	5952.695616867733	149
0	41297	5955.366206245422	148
0	41302	5955.61040322721	149
0	41315	5956.791951465355	150
0	41345	5962.176671075543	149
0	41348	5962.327169297884	148
0	41354	5963.399051225982	147
0	41362	5963.944582865686	148
0	41365	5964.023614873155	149
0	41372	5966.334674172285	148
0	41389	5968.06381965184	149
0	41392	5968.100577905992	150
0	41441	5975.782703046438	149
0	41449	5976.13733342413	150
0	41453	5977.348455796613	149
0	41458	5978.419196166637	150
0	41459	5978.662057358978	149
0	41475	5982.472209732585	148
0	41489	5984.566293972024	147
0	41506	5986.73201343838	148
0	41509	5987.209406136787	149
0	41512	5987.597569526567	150
0	41519	5988.901852342586	149
0	41528	5989.533520870918	150
0	41587	6000.99006999797	149
0	41592	6001.300011071916	150
0	41613	6006.352542093228	149
0	41618	6006.360909453776	150
0	41657	6015.404215508108	149
0	41695	6021.206617212678	150
0	41732	6027.18378164218	149
0	41741	6028.931963098246	150
0	41759	6030.787668916941	149
0	41774	6032.391519735443	150
0	41838	6040.825559347002	149
0	41841	6041.150121957886	148
0	41853	6042.318437999364	149
0	41866	6044.256209877507	150
0	41934	6055.377749965407	149
0	41937	6055.463150615835	148
0	41948	6058.20997882227	149
0	41976	6064.229639590497	148
0	41986	6066.981351724202	147
0	41991	6067.239256577369	148
0	41994	6069.351747126133	147
0	42011	6071.389500493141	148
0	42023	6074.608568571018	147
0	42038	6076.628852023337	148
0	42058	6079.211352671045	149
0	42067	6082.165904918031	150
0	42182	6106.879233841619	149
0	42193	6107.987782712244	150
0	42304	6126.318237398893	149
0	42317	6128.808383107595	148
0	42320	6129.029126068845	147
0	42330	6130.048978171739	148
0	42353	6131.831471905156	149
0	42363	6135.171474071945	148
0	42382	6139.092874248244	149
0	42389	6139.464882385732	150
0	42435	6147.594571566577	149
0	42461	6149.275768054283	150
0	42464	6150.461020351363	149
0	42471	6152.153078341674	150
0	42542	6164.251977341318	149
0	42545	6164.861922027374	148
0	42550	6164.876651778709	149
0	42553	6165.628903426628	150
0	42579	6168.594388500503	149
0	42590	6169.290605450511	148
0	42600	6171.342653372644	149
0	42606	6173.290069698772	150
0	42621	6177.009262625852	149
0	42626	6177.183890806803	150
0	42720	6190.121469814146	149
0	42743	6192.513991313837	148
0	42758	6194.271318990367	149
0	42764	6195.5364808581	150
0	42874	6220.280874030511	149
0	42929	6227.558352762037	148
0	42937	6228.761412298946	149
0	42943	6230.851608838237	148
0	42946	6230.953732423659	147
0	42964	6232.849781378536	148
0	42978	6235.240258596404	149
0	42993	6236.610859286033	150
0	43100	6255.83908484208	149
0	43117	6258.795148781248	150
0	43118	6259.090958158037	149
0	43121	6260.421837090803	148
0	43127	6261.698669834279	147
0	43132	6261.705152474903	148
0	43143	6263.131525001373	149
0	43146	6263.235107541981	150
0	43184	6266.891152070973	149
0	43200	6271.405273135492	148
0	43211	6273.875677831019	149
0	43212	6275.926009757847	148
0	43215	6276.784805133481	147
0	43220	6277.177306816394	148
0	43228	6278.364453088811	149
0	43238	6280.256947801768	150
0	43289	6290.297610719565	149
0	43309	6292.63034921771	150
0	43378	6301.820106840054	149
0	43387	6303.497596100592	150
0	43405	6306.580841287666	149
0	43415	6307.838509090069	150
0	43440	6312.178538747846	149
0	43448	6312.772440337762	150
0	43513	6325.320162359539	149
0	43518	6325.434440202861	150
0	43578	6332.950315204829	149
0	43589	6334.708643774168	150
0	43606	6337.82861499025	149
0	43614	6338.678051687023	150
0	43646	6343.732072558796	149
0	43658	6346.393573244135	150
0	43675	6348.997096028999	149
0	43680	6350.591089985193	150
0	43784	6371.752310414252	149
0	43791	6373.609626045848	148
0	43802	6374.832711175946	149
0	43805	6374.983065743811	150
0	43826	6378.525864286756	149
0	43831	6379.222575462733	150
0	43838	6383.015286644586	149
0	43859	6386.0054917996	150
0	43860	6386.661019099812	149
0	43873	6389.268357722322	150
0	43911	6398.386215468249	149
0	43916	6399.29596587767	150
0	43959	6407.894662286075	149
0	43966	6409.609745064847	150
0	43970	6412.036187316351	149
0	43981	6412.600094032288	150
0	44007	6419.890809757141	149
0	44013	6421.417504952443	148
0	44018	6422.023303884757	149
0	44021	6424.549077573147	150
0	44053	6435.925140929192	149
0	44058	6435.983989333599	150
0	44071	6436.564275657614	149
0	44082	6437.822433832329	150
0	44086	6438.245706199079	149
0	44093	6438.464668026165	148
0	44104	6439.785944012632	149
0	44113	6442.473577820223	150
0	44123	6446.665726252231	149
0	44136	6449.350524267584	150
0	44143	6450.572594420119	149
0	44155	6451.430380847875	150
0	44278	6470.949433743796	149
0	44283	6471.954968733503	150
0	44445	6507.835049425013	149
0	44468	6511.213475001329	150
0	44525	6524.479033316934	149
0	44535	6525.798367547516	150
0	44654	6553.634469534063	149
0	44660	6555.312765773608	148
0	44678	6558.82260783938	147
0	44683	6559.280844577684	148
0	44704	6565.942113486054	147
0	44714	6566.377455477534	148
0	44717	6566.566875525975	149
0	44742	6572.491355066483	148
0	44753	6574.082951199674	149
0	44756	6574.818549482186	150
0	44763	6576.885567575131	149
0	44773	6577.54997525637	148
0	44781	6578.886168651494	149
0	44790	6583.903285104615	150
0	44791	6584.495597602224	149
0	44807	6586.423136134381	148
0	44815	6589.861497681651	149
0	44853	6596.269837100525	148
0	44858	6596.32143203878	149
0	44859	6596.64419340365	148
0	44867	6597.434688268581	149
0	44870	6598.107831330857	150
0	44887	6600.08149479803	149
0	44897	6600.738268021248	150
0	45019	6622.225434048856	149
0	45028	6624.732740221732	148
0	45034	6625.748423872312	147
0	45059	6632.216174714897	148
0	45062	6632.632847889954	149
0	45065	6633.311500317898	150
0	45089	6638.896391177281	149
0	45097	6640.912155328856	150
0	45191	6657.831797822971	149
0	45194	6658.0498057617	148
0	45199	6659.163845992106	149
0	45202	6659.319059534027	150
0	45228	6665.803230571843	149
0	45236	6668.079425426706	150
0	45259	6672.278238299751	149
0	45268	6672.33815795441	150
0	45285	6677.090442497519	149
0	45295	6678.814594380408	150
0	45305	6681.122985756641	149
0	45308	6681.38254984427	148
0	45317	6682.550807643553	147
0	45320	6683.127682742111	146
0	45325	6684.362803595076	147
0	45326	6684.387802452613	146
0	45331	6685.046904536152	147
0	45344	6686.227166167641	148
0	45355	6688.800215268017	149
0	45360	6690.425992161328	150
0	45361	6690.82615657579	149
0	45366	6691.4034245399	150
0	45445	6704.570014767528	149
0	45454	6707.209711309744	148
0	45473	6708.892384168749	147
0	45478	6709.404049911544	148
0	45484	6712.274631020484	149
0	45494	6714.47472423945	150
0	45530	6719.007199154851	149
0	45539	6723.102446370592	148
0	45553	6725.533651833048	149
0	45565	6726.893947540835	150
0	45588	6732.037184929501	149
0	45604	6734.025816661791	150
0	45670	6745.280155570991	149
0	45683	6746.368383211006	150
0	45704	6751.182402846733	149
0	45709	6751.441793744849	150
0	45746	6757.158439586475	149
0	45751	6757.434900894448	150
0	45793	6765.72903613616	149
0	45805	6767.120012093786	150
0	45853	6772.554170718946	149
0	45858	6773.085048808851	150
0	45916	6787.640559395976	149
0	45925	6788.120022172208	150
0	45999	6801.305679985756	149
0	46012	6802.551504325808	148
0	46019	6802.903572663599	147
0	46041	6808.893516914938	148
0	46055	6811.232021035218	149
0	46058	6812.310797617819	150
0	46105	6818.74130590408	149
0	46110	6818.894791625753	150
0	46119	6820.059928339439	149
0	46122	6820.220320153864	148
0	46133	6821.997234380101	149
0	46136	6822.312939007869	150
0	46220	6841.67121389086	149
0	46232	6843.70139865267	150
0	46247	6847.3546944479	149
0	46259	6847.629305099855	150
0	46272	6850.21422134311	149
0	46293	6854.884446038129	150
0	46399	6880.456972548184	149
0	46404	6880.690770107629	150
0	46467	6894.13445835253	149
0	46470	6895.027693953988	148
0	46475	6895.349700058501	149
0	46483	6896.12179200962	150
0	46699	6934.676132881646	149
0	46715	6938.030142345067	150
0	46716	6938.168817732144	149
0	46787	6946.414214761925	150
0	46790	6948.005702926551	149
0	46802	6948.97416265407	148
0	46810	6950.305379293228	147
0	46815	6951.083992101187	148
0	46821	6951.699343770655	149
0	46828	6955.434075535848	150
0	46847	6959.063692153746	149
0	46865	6962.857775019177	150
0	46901	6967.664255894705	149
0	46913	6968.104736323566	150
0	46950	6974.598643151411	149
0	46955	6975.555833351629	150
0	46998	6985.247703167202	149
0	47003	6986.627603809729	150
0	47007	6986.95406916422	149
0	47020	6987.952363260576	150
0	47302	7035.124782596528	149
0	47307	7036.977292973702	150
0	47328	7044.764597999705	149
0	47341	7047.32637105303	150
0	47358	7050.224367149154	149
0	47363	7050.435478392974	150
0	47372	7050.592002013002	149
0	47382	7051.580842749314	150
0	47396	7054.96494763709	149
0	47401	7055.338363126132	150
0	47402	7055.340539248583	149
0	47407	7055.819607504213	150
0	47454	7066.064844302534	149
0	47459	7066.26977755868	150
0	47482	7071.873111980603	149
0	47499	7075.391815115088	150
0	47500	7075.774911372169	149
0	47510	7079.855028089802	150
0	47605	7094.221810385255	149
0	47616	7095.482185218603	148
0	47621	7097.886240040056	149
0	47624	7098.43576400034	150
0	47644	7103.572251414826	149
0	47659	7107.770894055549	150
0	47691	7116.486440405161	149
0	47699	7117.346804308049	150
0	47710	7131.211066907506	149
0	47717	7145.132238375266	148
0	47720	7145.49479620369	147
0	47737	7152.955243748457	146
0	47779	7170.90968658635	145
0	47793	7175.151421200201	144
0	47812	7199.044304913719	143
0	47834	7210.061097830783	142
0	47851	7212.91827266843	141
0	47888	7229.458096629958	140
0	47908	7237.527055715485	139
0	47915	7239.864932621435	138
0	47918	7242.063874932483	137
0	47951	7250.195760770708	136
0	47954	7251.526860485265	135
0	47978	7272.26550828894	134
0	47981	7273.105101570341	133
0	47984	7273.989861382218	132
0	48008	7285.398881566834	131
0	48032	7305.797586910175	130
0	48048	7310.802474230834	129
0	48051	7311.547530979274	128
0	48070	7315.385501567603	127
0	48084	7317.34424989809	126
0	48091	7319.677180561505	125
0	48112	7330.432078586549	124
0	48117	7332.322680459696	123
0	48150	7337.015257466041	122
0	48173	7344.713609638642	121
0	48176	7346.670502425141	120
0	48187	7348.772977380648	119
0	48215	7358.044472956372	118
0	48232	7365.838736566733	117
0	48243	7372.340287255139	116
0	48250	7377.290486316798	115
0	48257	7378.070557367073	114
0	48263	7385.065828629217	113
0	48266	7385.867385708311	112
0	48274	7388.316591519023	111
0	48299	7407.964169003448	110
0	48334	7424.385652670367	109
0	48341	7426.72014214284	108
0	48350	7434.326957797435	107
0	48356	7437.039600389721	106
0	48359	7437.387345847951	105
0	48364	7442.407577202881	104
0	48377	7446.977407337972	103
0	48387	7453.054880580771	102
0	48425	7464.316988305795	101
0	48438	7477.662219422858	100
0	48462	7486.989109252192	99
0	48493	7501.495457753996	98
0	48496	7502.464177754394	97
0	48530	7518.594646682899	96
0	48591	7531.851996022485	95
0	48602	7536.178233203929	94
0	48651	7549.797415101317	93
0	48660	7558.257129688203	92
0	48663	7558.40860518538	91
0	48666	7559.489667523529	90
0	48694	7568.680909069539	89
0	48714	7578.211528457383	88
0	48717	7579.081842422979	87
0	48748	7587.969216058899	86
0	48767	7593.709870480953	85
0	48770	7594.120290977909	84
0	48785	7598.478266880241	83
0	48810	7618.940960846789	82
0	48833	7631.218749615269	81
0	48836	7632.933562327993	80
0	48870	7650.082832264764	79
0	48886	7652.881171095214	78
0	48903	7666.499126105647	77
0	48953	7690.040881699722	76
0	48965	7701.08218624836	75
0	49002	7715.708928564932	74
0	49018	7720.97310313067	73
0	49038	7729.032528243236	72
0	49062	7738.449972508346	71
0	49075	7749.450154186489	70
0	49103	7760.429890945053	69
0	49115	7764.977351610514	68
0	49122	7766.494084100787	67
0	49136	7770.935724502421	66
0	49150	7773.309512584591	65
0	49161	7778.09864089415	64
0	49178	7784.535798324409	63
0	49203	7795.460425618132	62
0	49209	7803.742597053303	61
0	49212	7807.77982482423	60
0	49222	7811.36646235094	59
0	49225	7819.834510956593	58
0	49260	7834.543195149443	57
0	49278	7840.545605706112	56
0	49303	7845.308914708121	55
0	49334	7865.838242688621	54
0	49342	7870.10417208983	53
0	49345	7874.784095782705	52
0	49369	7895.295586819721	51
0	49375	7899.295505627918	50
0	49409	7908.922942715707	49
0	49418	7910.670598157149	48
0	49428	7913.786877617366	47
0	49444	7917.157509311578	46
0	49457	7922.534250974072	45
0	49465	7927.135888824702	44
0	49500	7937.535977710514	43
0	49511	7939.021696006971	42
0	49518	7944.471103828131	41
0	49581	7976.136140491042	40
0	49608	7988.305068305572	39
0	49613	7989.438830180073	38
0	49616	7989.893715307824	37
0	49643	7995.45703304862	36
0	49671	8009.352005523507	35
0	49697	8033.666436335191	34
0	49714	8044.866043299387	33
0	49732	8051.916134232471	32
0	49738	8054.823915374275	31
0	49750	8062.101439005428	30
0	49753	8063.302524017336	29
0	49764	8069.839949191169	28
0	49776	8074.572987665419	27
0	49786	8075.436875165271	26
0	49796	8078.622439842223	25
0	49799	8079.136047460853	24
0	49805	8081.793574415748	23
0	49820	8087.439805323563	22
0	49831	8097.423590225839	21
0	49857	8109.86788043531	20
0	49864	8113.8772874933	19
0	49916	8155.356647434418	18
0	49924	8156.191342860573	17
0	49927	8156.796193749082	16
0	49954	8175.860287968417	15
0	49967	8180.655670547216	14
0	49978	8188.782242809725	13
0	49981	8194.922413427677	12
0	49995	8202.154566377441	11
0	49998	8202.359947170807	10
0	50001	8204.412201553964	9
0	50004	8204.737038134489	8
0	50034	8213.142315835439	7
0	50037	8215.557369403474	6
0	50074	8246.116558370617	5
0	50096	8256.314960872338	4
0	50101	8264.21009437532	3
0	50109	8266.268513053897	2
0	50142	8283.588201179362	1
0	50149	8287.685820592275	0
1	0	0	0
1	7	1.205430946523	1
1	14	1.96736974774	2
1	17	1.980154324793	3
1	20	2.513886480152	4
1	27	2.66921201169	5
1	30	2.73113507095	6
1	33	2.935003331071	7
1	36	4.188127505866	8
1	45	4.694755690861	9
1	48	4.996607743276	10
1	51	5.001729676913	11
1	54	5.121479499621	12
1	57	5.239085429706	13
1	70	6.59966808472	14
1	76	7.19604225498	15
1	83	7.939179599146	16
1	89	8.016859547011	17
1	101	9.249937369872	16
1	108	9.395507536412	17
1	121	10.883895280047	18
1	130	11.541148846781	19
1	133	11.623815632259	20
1	136	12.271006951726	21
1	148	12.965540653525	22
1	151	13.788874932836	23
1	167	16.115551779239	24
1	173	17.529497145168	25
1	176	18.85200417422	26
1	186	20.598508699442	25
1	192	20.64197659978	26
1	198	21.307020102517	27
1	201	21.466784791792	28
1	207	22.735446433254	29
1	272	31.534064066008	30
1	275	31.668192665783	31
1	278	31.844004530991	32
1	294	32.71790248488	31
1	302	33.769659980451	32
1	308	34.009546794327	33
1	309	34.650433057379	32
1	317	35.270364500836	33
1	320	35.831749936871	34
1	329	36.020519687026	35
1	345	38.439609930641	36
1	348	38.610713734296	37
1	351	38.772974391162	38
1	360	39.848807965154	39
1	363	39.864781884439	40
1	381	42.397931443021	41
1	384	43.115876557653	42
1	390	43.806547241187	43
1	400	44.92561737822	44
1	403	45.146007668679	45
1	404	45.857431645512	44
1	409	46.24201827523	45
1	412	47.379590471304	46
1	421	48.109634155477	47
1	427	48.179614477356	48
1	438	49.032468424867	49
1	446	49.276479734606	50
1	449	49.646005426417	51
1	452	50.029535249318	52
1	455	50.442010561868	53
1	461	50.964764620239	54
1	464	51.26906250023	55
1	467	51.538933312954	56
1	475	53.269249648399	57
1	493	55.733749320459	58
1	506	56.73232156352	59
1	515	57.258857858269	60
1	530	59.142205513469	61
1	535	59.401569845171	62
1	542	59.596228446108	63
1	545	60.066319324977	64
1	555	60.709396832463	63
1	560	61.363607602483	64
1	563	61.551894078995	65
1	584	62.673723811374	66
1	587	63.672479004366	67
1	593	64.509004719311	68
1	596	64.837565294209	69
1	599	66.599488693128	70
1	602	66.626160291228	71
1	610	67.145377728972	72
1	619	68.121491164275	73
1	628	68.273596829094	74
1	635	71.580637208477	75
1	651	72.714446911504	76
1	681	76.662038235336	77
1	689	78.029765897218	78
1	720	81.36351352458	79
1	723	81.887877045433	80
1	732	83.080564562903	81
1	733	84.440085837309	80
1	749	85.858658228678	81
1	763	87.162927148727	82
1	766	87.405513090453	83
1	769	87.431957509381	84
1	779	88.926377532177	85
1	782	89.635643502592	86
1	797	91.99267295055	87
1	808	92.892574704525	88
1	811	93.267129128232	89
1	814	93.807455587981	90
1	817	94.776822589121	91
1	820	95.641073836606	92
1	829	97.299682067231	93
1	834	99.121795365335	94
1	837	99.680591609895	95
1	844	100.065002245947	94
1	847	100.129927481853	93
1	861	101.970348855485	94
1	862	102.5251976332	93
1	867	102.632691506003	94
1	870	102.839957232195	95
1	873	103.17593341211	96
1	876	103.231340535287	97
1	883	103.916242512498	98
1	886	104.218753801658	99
1	889	104.844080852559	100
1	987	115.495623689287	99
1	1003	117.312730914275	100
1	1004	117.413068059025	99
1	1009	117.977183065897	100
1	1046	120.495862122191	99
1	1054	121.224585900991	100
1	1069	121.620137507556	99
1	1074	121.696118034623	100
1	1143	129.131952323729	99
1	1148	129.555156282416	100
1	1355	151.656946646691	99
1	1360	151.657804304832	100
1	1651	186.452720045139	99
1	1656	186.804902985766	100
1	1920	219.644657199916	99
1	1928	220.329894440403	100
1	2007	226.367011593987	99
1	2015	226.674671280713	100
1	2127	244.977863747349	99
1	2132	245.029528911535	100
1	2136	245.666689707094	99
1	2144	246.082306102178	100
1	2150	246.513337444236	99
1	2155	247.046175375775	100
1	2217	254.986905617004	99
1	2222	254.992671907233	100
1	2299	260.381385690649	99
1	2311	261.000759479584	100
1	2379	269.120276388533	99
1	2384	269.35999272025	100
1	2394	269.921669887867	99
1	2402	269.954337854831	100
1	2420	271.640727302846	99
1	2428	272.944399226746	100
1	2432	273.71342238696	99
1	2441	274.078194805605	100
1	2466	277.159284133049	99
1	2474	277.644809158026	100
1	2475	278.058638724382	99
1	2483	278.936110406218	100
1	2484	279.196820021904	99
1	2489	279.260486450464	100
1	2502	281.283246163957	99
1	2510	282.004709346558	100
1	2526	284.75212983029	99
1	2531	285.481224478761	100
1	2669	299.966574628693	99
1	2689	302.777151371021	100
1	2771	312.196510547807	99
1	2779	312.678365239618	100
1	2789	314.043198996621	99
1	2794	314.172856610632	100
1	2860	322.05963957959	99
1	2878	324.177137913959	100
1	2927	334.422732583691	99
1	2935	335.907920018722	100
1	3107	359.477472440385	99
1	3110	360.090787165968	98
1	3115	360.84078260519	99
1	3130	362.368821385353	100
1	3191	368.434803340034	99
1	3196	368.761869306736	100
1	3215	370.401187330597	99
1	3220	370.614382708526	100
1	3258	374.570933492918	99
1	3263	374.956231230691	100
1	3310	381.51810497257	99
1	3315	382.009654765921	100
1	3331	384.018751161749	99
1	3334	384.126063363745	98
1	3348	384.741209491076	99
1	3361	385.460657839975	100
1	3605	421.817401274258	99
1	3610	421.905717166064	100
1	3625	424.944240798243	99
1	3635	428.083859074321	100
1	3667	432.515490815384	99
1	3680	434.341803776678	100
1	3798	447.829299539167	99
1	3809	449.571150143329	100
1	3839	453.264470725513	99
1	3848	454.53253002753	100
1	4071	478.562689958554	99
1	4080	480.794916786974	98
1	4085	480.935689879296	99
1	4090	481.426997033112	100
1	4100	483.257463988492	99
1	4109	483.785461895523	100
1	4154	487.402921589995	99
1	4182	490.439912753178	100
1	4325	503.829437105803	99
1	4333	504.048281887744	100
1	4352	505.292006290531	99
1	4360	506.016560779819	100
1	4585	533.352649298905	99
1	4593	533.995279176581	100
1	4625	536.6584975027	99
1	4639	538.710963826458	100
1	4762	557.66657273383	99
1	4777	560.127959269817	100
1	4891	573.158567935775	99
1	4899	575.208783268461	100
1	4959	580.035255878111	99
1	4972	580.489885591291	98
1	4977	580.730999525177	99
1	4989	582.500162560144	100
1	5011	584.676349524087	99
1	5016	584.683973511086	100
1	5094	592.809098116512	99
1	5099	592.81737755507	100
1	5110	594.174064730213	99
1	5117	596.61111585938	98
1	5122	597.194408068526	99
1	5125	597.453432933209	100
1	5141	599.707217040602	99
1	5146	599.94978764976	100
1	5198	606.284482296179	99
1	5203	606.561853251865	100
1	5246	612.32790072948	99
1	5266	614.522586853553	100
1	5283	615.470736892138	99
1	5288	616.107077918815	100
1	5371	628.886547361701	99
1	5391	631.309518105158	100
1	5395	631.799861476928	99
1	5434	634.327333742251	98
1	5442	634.825847359571	99
1	5445	635.057553964075	100
1	5541	646.42826235698	99
1	5550	646.959643364194	100
1	5660	659.039623458498	99
1	5687	663.639039503651	98
1	5697	664.205670241917	99
1	5703	664.668345279139	100
1	5945	692.699163616097	99
1	5953	694.893368616786	100
1	5982	698.468161664328	99
1	5991	698.491106340506	100
1	6106	715.625457953407	99
1	6112	716.562092235214	98
1	6129	717.567411976533	99
1	6140	718.992293244887	100
1	6181	721.642501195325	99
1	6189	723.398096330589	100
1	6208	724.440210339906	99
1	6216	725.070994104707	100
1	6232	727.403199847362	99
1	6250	728.128747926847	100
1	6292	731.75429519855	99
1	6300	732.195048278089	100
1	6407	744.554037457925	99
1	6438	747.687885628596	100
1	6617	765.854804956405	99
1	6625	767.024508047087	100
1	6734	782.061659703766	99
1	6741	782.753474283399	100
1	6848	792.678257045594	99
1	6859	793.367656645015	100
1	6873	795.345273137565	99
1	6909	802.079766246819	100
1	6945	804.728011705212	99
1	6950	805.715003204172	100
1	7088	822.788304975695	99
1	7093	823.662586416014	100
1	7166	832.440910265484	99
1	7176	833.739775458807	98
1	7181	833.804378293117	99
1	7187	835.301314053514	100
1	7250	843.355527709661	99
1	7259	843.719832070422	100
1	7339	854.074791829853	99
1	7347	854.17516728517	100
1	7429	867.11292467449	99
1	7445	867.943798691231	100
1	7492	872.215763776394	99
1	7512	873.827341935568	100
1	7565	879.653444843296	99
1	7571	880.238720293836	98
1	7589	882.033484057411	97
1	7594	882.197148338291	98
1	7603	883.562606175263	99
1	7606	883.744399860393	100
1	7730	902.882318525353	99
1	7735	903.513199066583	100
1	7748	904.302752184749	99
1	7761	905.748855305835	100
1	7857	916.631533233071	99
1	7865	916.807069264016	100
1	7872	918.141200751778	99
1	7877	919.407439487499	100
1	7926	925.086124632777	99
1	7929	925.15113042653	98
1	7935	925.961646958495	97
1	7940	926.196348391563	98
1	7946	926.718685031909	99
1	7949	926.788707459985	100
1	8078	941.110664060317	99
1	8083	941.20914622219	100
1	8166	952.903788942158	99
1	8171	953.747690941149	100
1	8254	966.662578633635	99
1	8257	966.866261884101	98
1	8265	967.506059890915	99
1	8268	968.069736591329	100
1	8269	968.232636454172	99
1	8274	968.610670786412	100
1	8381	977.887041243477	99
1	8396	980.901763226913	98
1	8401	981.227289394463	99
1	8414	983.98137024732	100
1	8415	983.997530899441	99
1	8420	984.053808989229	100
1	8427	985.045913861469	99
1	8432	987.094788155061	100
1	8502	994.007892460902	99
1	8511	994.722859171288	100
1	8555	999.172491678116	99
1	8560	999.74143071478	100
1	8608	1004.957537789444	99
1	8613	1004.972110915852	100
1	8645	1007.908577069685	99
1	8668	1009.160060673891	98
1	8673	1010.098337092343	99
1	8690	1012.289133535224	100
1	8718	1015.339414763422	99
1	8731	1016.452654814676	98
1	8736	1016.508570966415	99
1	8748	1019.058279890287	100
1	8795	1025.188950487502	99
1	8806	1025.774687898228	100
1	8847	1029.598449404252	99
1	8853	1029.934592741491	98
1	8858	1030.100581450999	99
1	8867	1031.319960387699	100
1	8898	1034.423754121628	99
1	8903	1034.593623643975	100
1	9014	1045.157390942739	99
1	9019	1045.848968235891	100
1	9020	1046.112652383382	99
1	9028	1047.273222360177	100
1	9182	1068.024960833739	99
1	9205	1070.543174722213	100
1	9259	1077.929406814814	99
1	9264	1078.189538578194	100
1	9308	1082.396291821516	99
1	9326	1085.367359332865	100
1	9381	1093.089428727463	99
1	9386	1094.257145743188	100
1	9485	1105.796573384232	99
1	9494	1106.45547686368	100
1	9627	1121.280487890333	99
1	9656	1124.875186376865	100
1	9657	1125.404483259649	99
1	9667	1126.252484688128	98
1	9672	1126.479212268892	99
1	9675	1126.697356535871	100
1	9704	1130.738802566954	99
1	9726	1132.459538850845	100
1	9761	1137.590189922125	99
1	9774	1138.602321737091	100
1	9824	1143.086191150336	99
1	9833	1144.938849735887	98
1	9836	1145.215333965568	97
1	9845	1145.538015962716	96
1	9853	1146.119136823525	97
1	9862	1147.039125091322	98
1	9863	1147.074824101302	97
1	9872	1147.257124055283	98
1	9876	1147.547249925581	97
1	9897	1149.550166766701	96
1	9904	1150.411524493079	97
1	9907	1150.442154301358	98
1	9913	1152.519339213109	99
1	9932	1155.73836371509	100
1	9947	1157.419383043406	99
1	9952	1157.650462242266	100
1	9956	1158.288947766135	99
1	9964	1158.749290785298	100
1	9974	1160.353175749155	99
1	9989	1163.071996502332	100
1	10067	1172.613398727462	99
1	10072	1173.052128806606	100
1	10090	1175.555276108523	99
1	10100	1176.223419645535	100
1	10119	1177.582107205077	99
1	10124	1178.166575624161	100
1	10169	1184.001748604985	99
1	10188	1185.108259088372	100
1	10251	1193.824147402488	99
1	10260	1194.708805547331	100
1	10579	1239.744943477176	99
1	10609	1245.238183746185	100
1	10739	1259.021570382157	99
1	10758	1261.448793802493	100
1	10833	1266.26773204265	99
1	10838	1266.329526657438	100
1	10915	1275.293083734762	99
1	10923	1275.41150905419	100
1	10935	1276.621465242439	99
1	10943	1277.640050518973	100
1	10959	1279.8812163684	99
1	10978	1282.363249230076	100
1	10979	1282.878876454597	99
1	10985	1284.157918315713	98
1	10995	1284.472753375238	99
1	10998	1285.963018388021	100
1	10999	1286.288312637013	99
1	11022	1287.821381920656	100
1	11099	1300.887919625244	99
1	11104	1301.178151195898	100
1	11300	1323.369920774581	99
1	11327	1326.664413359579	100
1	11334	1327.763646547443	99
1	11339	1328.949041203079	100
1	11397	1335.695667214724	99
1	11400	1337.56272756631	98
1	11409	1338.577752916674	99
1	11412	1338.582485305023	100
1	11419	1339.658266114395	99
1	11452	1342.015505457908	100
1	11539	1350.986483541097	99
1	11544	1351.11430101229	100
1	11545	1351.487066401535	99
1	11556	1353.088602048655	100
1	11568	1355.214951098011	99
1	11587	1356.822602056869	100
1	11654	1367.653349790852	99
1	11662	1368.646680930864	100
1	11850	1395.470841357655	99
1	11863	1395.807626458086	100
1	11943	1407.399547716739	99
1	11948	1408.035050790269	100
1	12061	1422.949136886955	99
1	12066	1423.039117255369	100
1	12161	1436.648019614276	99
1	12169	1438.245121980893	100
1	12182	1440.42904779724	99
1	12187	1440.51066891968	100
1	12209	1446.499768233535	99
1	12217	1447.032892628987	100
1	12320	1458.798629229637	99
1	12328	1459.417571338076	100
1	12389	1468.648798692358	99
1	12397	1469.113819263371	100
1	12439	1474.92630212906	99
1	12444	1475.618967578064	100
1	12464	1476.784761821375	99
1	12472	1476.94276115211	100
1	12476	1477.172643037372	99
1	12492	1480.281704186972	98
1	12507	1481.64309967333	99
1	12516	1482.141028728233	100
1	12579	1487.813451956816	99
1	12606	1491.294619009093	100
1	12677	1500.751319129219	99
1	12695	1501.326268582539	100
1	12704	1502.675092849309	99
1	12709	1502.891877763827	100
1	12743	1506.223832754802	99
1	12748	1506.533764650157	100
1	12762	1507.64253376781	99
1	12765	1507.976911303459	98
1	12770	1508.125531587061	99
1	12792	1509.902402929234	100
1	12834	1516.153830109806	99
1	12844	1517.661255157344	100
1	12859	1519.013583257804	99
1	12864	1519.723471941572	100
1	12920	1528.674369543161	99
1	12925	1529.363048316788	100
1	13172	1555.603151734434	99
1	13177	1555.801438725838	100
1	13232	1561.963483024744	99
1	13245	1562.716410817319	100
1	13442	1580.875428101589	99
1	13447	1581.098208512615	100
1	13577	1597.761389845088	99
1	13582	1597.810160428957	100
1	13708	1613.464476409251	99
1	13716	1614.012870987824	100
1	13726	1614.758513570184	99
1	13737	1617.601009010383	100
1	13870	1631.372565312712	99
1	13883	1632.045454279578	100
1	13930	1637.169396714352	99
1	13938	1637.495880989553	100
1	14068	1650.506798994963	99
1	14077	1650.565558358883	100
1	14081	1650.944553981973	99
1	14086	1651.856171237695	100
1	14187	1664.657167652959	99
1	14192	1664.786128065497	100
1	14218	1667.38879466117	99
1	14228	1667.923381008444	100
1	14253	1669.581260281452	99
1	14261	1670.083091696457	100
1	14369	1684.772979207951	99
1	14374	1684.917954743628	100
1	14386	1686.843417867593	99
1	14393	1689.135731745346	100
1	14394	1689.191706480224	99
1	14397	1689.244436799329	98
1	14405	1689.88111211103	99
1	14433	1692.072480654744	100
1	14562	1705.184524096535	99
1	14580	1706.778327559947	100
1	14611	1713.069413641715	99
1	14630	1714.780604057977	100
1	14804	1738.637456785245	99
1	14815	1740.431517965306	100
1	14840	1742.374288603656	99
1	14845	1743.732847776901	100
1	14873	1748.616677354962	99
1	14878	1749.27121885848	100
1	14956	1757.16516203672	99
1	14964	1757.813966338655	100
1	14980	1759.382063530868	99
1	14988	1761.729971832231	100
1	15058	1767.761121783992	99
1	15063	1768.003382797047	100
1	15117	1777.918237016279	99
1	15122	1778.16257553805	100
1	15283	1800.890775183706	99
1	15288	1801.550741800412	100
1	15380	1813.172273699548	99
1	15409	1816.173992585537	100
1	15456	1822.842761644608	99
1	15459	1823.15655650162	98
1	15470	1823.539281664773	99
1	15483	1825.26063284009	100
1	15573	1836.93147544985	99
1	15578	1836.977138333815	100
1	15654	1847.356912411861	99
1	15692	1851.171256289028	100
1	15779	1862.374698429102	99
1	15786	1862.782190314258	100
1	15880	1870.26496708098	99
1	15888	1870.781188421695	100
1	15894	1872.171561252879	99
1	15899	1872.329039892108	100
1	16054	1888.051881320074	99
1	16067	1888.723470606209	100
1	16111	1896.152636874548	99
1	16124	1897.475194955131	98
1	16129	1897.541434412835	99
1	16130	1897.975576412044	98
1	16154	1900.937322874541	99
1	16157	1901.056197541621	100
1	16207	1907.207453344818	99
1	16223	1908.200877493023	100
1	16294	1916.443392460806	99
1	16314	1918.934299355762	100
1	16454	1936.389954921952	99
1	16473	1937.293326538897	100
1	16534	1944.973289057711	99
1	16547	1946.641307034283	100
1	16556	1947.588928245282	99
1	16570	1948.498878914182	100
1	16717	1966.266456258035	99
1	16722	1966.633093186604	100
1	16876	1982.428755780826	99
1	16894	1986.193355005212	100
1	17045	2007.510186410291	99
1	17059	2008.186216776576	100
1	17060	2008.280655276882	99
1	17080	2010.091759166177	98
1	17087	2010.186483610895	97
1	17095	2010.675747090972	98
1	17096	2010.74074497411	97
1	17099	2010.742714882714	96
1	17109	2011.452335340904	97
1	17134	2014.838464982086	98
1	17147	2015.322834329724	99
1	17153	2016.516053733242	100
1	17192	2022.939382504736	99
1	17197	2023.056439302676	100
1	17207	2024.877579425927	99
1	17222	2026.340971654196	100
1	17286	2035.795285449994	99
1	17302	2036.91184055499	100
1	17442	2053.601323321594	99
1	17454	2054.309304333728	100
1	17461	2055.580528714256	99
1	17469	2055.774337334219	100
[...]
11	59964	14521.709736831325	14217.028304295
11	59968	14521.795684964686	8212.1017067385
11	59984	14544.481520805213	8576.4177011534
11	59988	14546.298650153014	8603.3609697688
11	59992	14547.676764591183	8541.3158551374
11	60003	14555.503695330398	8243.2919355123
11	60007	14565.390493223208	13885.093206349
11	60011	14566.867024676247	13839.614750528
11	60027	14577.943119068459	8498.7317663974
11	60040	14585.87531457507	8433.7222362334
11	60058	14596.235577661171	13852.230172003
11	60069	14601.761254843699	8183.2355334291
11	60085	14607.457963479651	8620.2485573429
11	60105	14633.904747492634	13834.616545807
11	60128	14646.770815295829	13845.712962056
11	60141	14660.810041028538	8221.9982718516
11	60150	14664.14916544003	13809.744820393
11	60159	14665.342479506695	13856.724845167
11	60163	14669.260815415092	13798.932254442
11	60192	14686.043179889582	8457.2817675906
11	60205	14689.816036122804	8252.0397738236
11	60212	14690.920716274209	13769.685490134
11	60218	14695.430317502489	8306.1619597802
11	60229	14707.058175990246	13790.313472327
11	60242	14734.530059874158	8125.126092777
11	60246	14735.507482284872	8133.3585693945
11	60250	14737.243026810264	8230.1818768077
11	60254	14740.702258752993	8090.1288938586
11	60258	14742.388966141748	8089.5594137941
11	60262	14743.240670428594	8300.7670926084
11	60266	14743.519286016757	8169.4363348171
11	60277	14749.525653114106	8148.7873850929
11	60293	14766.12700617712	7951.3518632816
11	60297	14767.706889213831	8126.794733885
11	60301	14768.619423590164	7939.3767887177
11	60317	14774.920021536928	7941.4021801224
11	60321	14776.617714125492	7890.420323135
11	60329	14785.411034313576	7871.256976319
11	60333	14787.576128159934	13843.590931936
11	60372	14840.807875669397	13849.364011621
11	60376	14843.554071566525	13850.80400217
11	60380	14844.53235596815	8372.5773872346
11	60389	14850.79448404743	8171.979889667
11	60395	14856.371691698225	7786.1561251999
11	60416	14865.586377138867	7784.8036081213
11	60436	14891.585802211969	13785.876662967
11	60447	14894.738825028542	13741.708358578
11	60456	14896.286268040481	13755.947403812
11	60464	14900.554451529183	7825.1626364141
11	60473	14902.075093142015	7784.728288834
11	60482	14905.111544081539	14595.443698638
11	60497	14914.494684635089	13645.927914562
11	60501	14914.600692256388	13854.362829014
11	60505	14915.226942658144	13661.848966543
11	60528	14932.392685729646	13623.791400993
11	60546	14943.871587124737	14573.503570818
11	60550	14947.462935901498	14595.525070401
11	60559	14952.191248997461	13535.505854131
11	60563	14952.74486798838	13555.442464533
11	60571	14955.948188510818	14520.569015677
11	60580	14963.235200204625	13441.040373743
11	60591	14979.574229382686	13433.010795731
11	60595	14984.847062866178	13460.183979824
11	60599	14992.977801645128	13427.577092662
11	60608	14995.656006532821	13241.32424189
11	60612	14997.31727602483	13393.151963389
11	60616	14998.983104021707	13186.861718922
11	60624	15004.783371750228	13231.767813788
11	60633	15006.848993919669	13666.609287
11	60646	15017.180512373067	14320.614052475
11	60667	15032.360236764855	14286.823906902
11	60682	15042.134846302306	13107.644465923
11	60696	15050.678706994842	13086.294834533
11	60714	15054.811736497481	13059.101801748
11	60718	15054.903503056577	13216.396995949
11	60729	15059.47383858907	12978.046905902
11	60737	15075.108055578889	13246.077581001
11	60741	15076.287020979308	13080.441763697
11	60755	15080.837098086408	13772.029636626
11	60759	15086.020998948515	13743.856060918
11	60772	15097.515296005892	13478.163661492
11	60778	15105.872290986527	12978.399349036
11	60782	15107.040869857608	13016.366481671
11	60786	15109.942485022795	13466.000487183
11	60790	15118.121893906143	13428.659750739
11	60799	15123.742710331662	13419.857118888
11	60803	15125.777545253163	13356.108971912
11	60807	15128.063538347599	13186.279453579
11	60811	15128.61897145936	12924.276528953
11	60834	15136.017514004618	13759.710071537
11	60847	15141.946672424624	12823.736910956
11	60851	15151.327447137594	12740.588520643
11	60855	15151.472472201052	12855.511649408
11	60868	15153.737253279753	12691.009232756
11	60872	15164.490642695974	12855.498199237
11	60876	15165.005916220169	12681.872959419
11	60880	15169.693653086993	12701.288275605
11	60889	15176.368739687045	12642.318535338
11	60893	15183.178078360911	12698.557593138
11	60930	15206.869744919579	12502.1574998
11	60934	15207.238809008217	12469.661113684
11	60945	15214.316268010076	12611.25247477
11	60958	15221.352241114729	12454.530663924
11	60962	15225.730180981032	12300.330713076
11	60968	15229.988371775649	12126.592808597
11	60993	15261.865284779149	12452.488411049
11	60997	15263.996302002793	11978.877269234
11	61006	15266.474789869275	11927.149822398
11	61010	15266.705723032183	12499.387822824
11	61023	15270.351803113871	12424.437299669
11	61039	15277.500574736284	12411.590341888
11	61045	15291.337429824902	11828.741329205
11	61049	15296.522603176234	11825.233870321
11	61053	15298.527676403374	12555.339566746
11	61057	15307.899426750945	11827.285327789
11	61061	15310.421302340732	12427.459350381
11	61065	15310.980145672775	11931.381969953
11	61069	15313.573386410909	11655.739804449
11	61090	15327.14966019698	11623.941375089
11	61094	15330.078039990031	12385.929693817
11	61098	15332.377081269099	12415.345128776
11	61111	15338.432792442994	11496.236632359
11	61115	15340.75934060058	15339.553909654
11	61131	15348.541031146265	15325.805584713
11	61137	15350.175089497006	15311.735479566
11	61148	15352.844853255951	12442.274154101
11	61152	15354.060744718278	11268.478112575
11	61173	15363.0748476343	15313.7983679
11	61195	15378.464201374131	15327.195138874
11	61206	15389.350719307748	11072.671850062
11	61212	15394.694509061954	15327.549131333
11	61216	15397.903474177689	15336.351580099
11	61225	15399.114604920147	15360.503891186
11	61234	15400.311758066008	15310.676114563
11	61240	15405.845796745861	15045.005014141
11	61244	15408.44979727432	10834.377156024
11	61250	15412.970065059079	14963.398914916
11	61271	15414.363067010962	10494.810472963
11	61275	15414.399080674082	14579.097766621
11	61284	15419.753872712117	10381.280370212
11	61299	15426.229480335486	14275.787326034
11	61331	15448.552854284541	14841.991001033
11	61349	15463.718244315401	10354.10789499
11	61355	15468.668997104404	15423.743379726
11	61383	15508.739771578221	13245.289569835
11	61394	15513.105886639686	9784.2320649426
11	61398	15513.160236907554	9770.538090531
11	61404	15517.843538532398	9772.9684604975
11	61408	15524.050642183122	9791.6604367708
11	61412	15526.179876918821	10090.310128405
11	61418	15536.204052504712	15395.199101814
11	61422	15548.796691990351	13200.140470939
11	61426	15549.151859284324	13381.61315579
11	61430	15550.994255760105	15407.627806595
11	61452	15560.622036472704	12848.135903835
11	61459	15565.064475552448	9493.6749750593
11	61485	15578.334285895232	12645.80923968
11	61491	15582.343537121469	11562.818521388
11	61495	15582.781520698639	11417.113137014
11	61501	15586.939181156885	15331.42157321
11	61505	15590.202708496892	12426.613605573
11	61509	15592.274338047675	11007.670070793
11	61513	15592.430574219881	9206.4250824203
11	61517	15592.822748649107	10665.623732638
11	61528	15600.265228096122	8653.8510133342
11	61532	15601.001532559715	10529.60606245
11	61557	15610.917784200001	15291.723673328
11	61568	15614.004148512949	15182.789351587
11	61607	15625.653880140311	10113.439886996
11	61623	15632.712041903193	15138.76034528
11	61629	15633.596210038387	14984.224665643
11	61656	15651.55358160712	10148.011549779
11	61660	15653.209149528959	9766.5579717036
11	61664	15663.795502746283	9801.1479100134
11	61682	15679.888372571195	9908.0253911421
11	61693	15688.208580704504	9708.5710207654
11	61744	15734.355181947615	14154.032841499
11	61755	15738.816273903374	12892.737855851
11	61761	15745.042045819598	12706.86755343
11	61765	15746.358754306499	12999.732695894
11	61774	15748.975669498446	10223.26125356
11	61787	15771.777737286243	11846.111084933
11	61791	15775.161340121927	14552.086814178
11	61814	15788.219084704302	14311.513532849
11	61841	15806.075011068495	14741.917781998
11	61845	15810.71286588447	13665.391396909
11	61856	15814.983817022481	13533.601943494
11	61865	15818.582503390296	13348.391232158
11	61869	15819.895667786755	13313.179435641
11	61887	15827.811798364224	13313.72756815
11	61893	15835.846576829264	14844.714880758
11	61897	15840.576030612029	13117.836720601
11	61908	15846.217599925143	12953.573189722
11	61919	15853.795977584001	15591.922533987
11	61954	15870.826369761218	14996.999027826
11	61960	15871.883802908628	15841.219168556
11	61973	15882.951260010191	15838.34392792
11	61987	15885.544666283569	14707.378090659
11	61995	15888.261399072941	13136.959847726
11	61999	15899.772730030901	9625.8970521999
11	62008	15901.959377829435	8854.6330067764
11	62012	15902.202387597341	12520.21496551
11	62037	15912.355592347362	13634.274359573
11	62041	15914.242216795586	12383.759166687
11	62050	15917.226913831937	15241.474679135
11	62061	15920.526841433804	11458.606908673
11	62083	15947.978272340514	10587.749842129
11	62092	15953.24995927906	10443.047691878
11	62098	15957.270480632636	8859.3842405926
11	62102	15964.555583282785	9849.6855940078
11	62106	15971.792523618126	15870.867649714
11	62110	15972.407652759323	9375.2591010279
11	62114	15979.043299416049	13481.827025987
11	62118	15979.236859283708	9118.9930318848
11	62132	15987.30383171664	12715.101378072
11	62145	15996.035219626852	13812.333420457
11	62151	16011.083620900924	10462.72277471
11	62155	16023.503007678496	11672.927021305
11	62159	16026.709226116399	12991.00228919
11	62168	16035.615112892398	9540.3307234276
11	62186	16040.974125481973	9867.6840557832
11	62213	16072.658824470623	16067.657094794
11	62222	16076.233010934992	15565.132309735
11	62240	16092.389593583597	16025.224819369
11	62253	16100.136707216948	16068.468514551
11	62264	16103.607718881627	15988.538107977
11	62268	16114.165885417009	13729.662606477
11	62272	16115.802653441649	11249.141345701
11	62286	16119.598526600108	16073.356508325
11	62292	16121.081263383303	13972.243169154
11	62301	16122.195471484408	13358.681464578
11	62307	16128.49410321734	16102.052154584
11	62320	16137.628248143834	16101.612846049
11	62329	16141.137132319032	16053.70517481
11	62335	16146.994726068645	16045.024377213
11	62339	16147.090461111049	16086.703446476
11	62343	16157.34729817096	16109.237664015
11	62352	16159.374496378062	15731.290637304
11	62358	16161.554956494627	15891.60061864
11	62362	16162.461624763736	15841.318387186
11	62371	16167.28354629814	15570.08913823
11	62375	16167.669074652276	15783.286163259
11	62384	16173.719371334655	16094.170724612
11	62392	16175.866193613713	15181.143334442
11	62399	16178.309726548111	15159.251446658
11	62407	16186.468251087658	15140.619282852
11	62411	16189.281125278908	15819.673221146
11	62420	16196.163882049565	15312.601275874
11	62424	16201.320072586069	15074.62271605
11	62433	16203.349683143132	14780.310565888
11	62437	16204.727957993736	14745.310386656
11	62443	16211.52374763124	15048.451751129
11	62466	16220.591405760366	15402.50216938
11	62470	16222.219975030329	15534.277881838
11	62481	16229.240722841164	15172.608637481
11	62489	16236.797058343802	14366.015869922
11	62505	16240.767912775528	14472.764529978
11	62511	16249.851861985407	14234.529027656
11	62522	16259.836354204583	14851.39700741
11	62526	16261.750107675467	14808.416720639
11	62535	16268.321135232594	14693.814737643
11	62541	16273.711167173384	16153.631295561
11	62545	16288.298538548856	16163.823817491
11	62549	16300.50736527243	14004.845996218
11	62553	16301.258084619057	14477.718802954
11	62557	16311.275911676715	13983.282638214
11	62580	16340.130354054969	13887.80882167
11	62596	16352.886011433049	13987.116082379
11	62602	16354.88070644869	13904.884855144
11	62606	16363.160624786503	14154.156166648
11	62629	16368.671046858443	13883.021971867
11	62637	16386.594524751036	13501.783931533
11	62641	16402.513542979094	13688.983074273
11	62652	16409.080721783758	13768.126195987
11	62661	16412.354197858401	13939.729384972
11	62686	16423.520789406528	13501.941491305
11	62700	16426.536427060107	13343.968749814
11	62706	16431.392994197535	13928.571728801
11	62738	16445.179496048948	13789.442041561
11	62742	16448.593616373626	13132.822876175
11	62746	16448.658229368054	13524.95736567
11	62752	16450.503670930806	13470.83655524
11	62758	16451.416443443524	13414.89178773
11	62762	16451.558359782116	13392.666650824
11	62799	16471.125531418507	12930.46432938
11	62803	16474.362718161156	16329.819120879
11	62807	16475.097532776716	12835.539137528
11	62832	16486.127578164995	12959.779986079
11	62838	16493.488392847152	13261.942560263
11	62842	16495.047689615127	13187.540278285
11	62856	16507.763479203645	12697.623252414
11	62862	16510.764926251726	13133.684143553
11	62866	16512.322108622725	12688.058901502
11	62898	16535.190985612093	12488.901137706
11	62904	16535.971388561498	12047.089848357
11	62941	16556.048622581196	11860.600422745
11	62959	16569.024051675786	12306.827392187
11	62965	16575.486914423357	12288.29744182
11	62997	16597.775903355847	16228.389694833
11	63001	16598.770381489262	12026.570166299
11	63005	16600.516637839914	11683.413117157
11	63009	16601.945546471888	11931.670861908
11	63013	16602.340739143436	12203.330033538
11	63017	16618.245253976012	16260.031608499
11	63021	16621.918815060071	11673.405636368
11	63030	16628.465291256111	11576.61346155
11	63039	16630.319335321007	11677.599448774
11	63054	16637.600990823398	11285.981770855
11	63065	16638.788808079183	11767.51592041
11	63125	16668.240099013239	16230.506699598
11	63155	16690.518052795505	10994.880137794
11	63159	16693.662558412901	11570.660900816
11	63165	16695.563727076224	11057.859871197
11	63190	16713.687790619071	10861.843880891
11	63201	16718.093922250743	11683.025539349
11	63205	16718.309262669059	11090.066368999
11	63214	16724.299936569865	16181.848451106
11	63218	16725.643628827861	16153.698515366
11	63224	16734.151479874933	10697.129737295
11	63228	16738.258559625976	10931.208188192
11	63232	16743.069232425399	16486.894791635
11	63236	16744.106645442688	10547.475260656
11	63240	16746.32098893919	16094.381550911
11	63249	16748.533738457595	10415.575527133
11	63255	16753.47517641778	10414.761892319
11	63332	16795.317849682103	15911.794974989
11	63359	16810.239636590453	16024.628362942
11	63363	16811.280070639221	10296.91284224
11	63369	16822.188093172214	15906.335102336
11	63378	16832.826220872134	10043.510872965
11	63389	16852.150588381805	15912.767043411
11	63398	16854.685371483237	9894.373495701
11	63404	16858.372483860615	10000.749355655
11	63408	16865.587423787999	9865.4895698586
11	63424	16876.921082217359	9890.2934784076
11	63430	16880.585859920371	10134.217476709
11	63441	16884.942422727339	15630.971924242
11	63447	16895.133985555467	15917.249915792
11	63451	16896.618658334746	9808.544443778
11	63467	16907.817473901379	16476.178504164
11	63485	16915.760765509881	15410.922255541
11	63489	16919.312113990618	15239.969033947
11	63498	16923.212664337784	15037.2881465
11	63518	16931.440867802287	16214.359073775
11	63522	16932.177510698436	14857.318482467
11	63528	16936.041989540475	15940.488385927
11	63537	16936.448526348258	16187.608426943
11	63541	16936.701230372282	14637.928675349
11	63547	16938.473265362099	14374.664638592
11	63551	16939.097457834244	15577.931143525
11	63560	16941.572303195147	14700.406689221
11	63564	16942.123586001201	14472.569837162
11	63577	16948.089354250993	14328.579184043
11	63581	16950.876877126207	14394.280798612
11	63585	16951.297903455819	14159.42588574
11	63589	16954.104176122682	13578.460942353
11	63605	16961.698266367889	13996.555485755
11	63611	16972.096950019192	14058.652701253
11	63639	16987.060846414875	16963.439603517
11	63650	16991.086847133651	12426.765620976
11	63654	16992.601220873956	16949.485344316
11	63660	16994.255900471357	16359.430053112
11	63680	17009.057298233868	14098.200048567
11	63720	17035.66868799661	15069.03559481
11	63735	17042.550796143198	14583.195595654
11	63753	17061.757006167782	15480.658797655
11	63759	17071.838744355187	11489.398876997
11	63763	17076.21477505499	16476.264987405
11	63767	17077.218349341916	13948.232450742
11	63771	17078.464787816674	13442.598911464
11	63775	17086.887764194661	12405.728158338
11	63786	17092.159882298321	11458.738802979
11	63790	17092.43462343798	16701.003433177
11	63794	17094.383466827224	11846.422110107
11	63798	17097.027554196023	16727.871550866
11	63802	17097.080552427006	13591.307685536
11	63806	17101.783504692153	10868.121658014
11	63810	17110.096852154597	10916.142778227
11	63819	17116.081409119631	15626.893099099
11	63823	17125.74054705238	15730.248420793
11	63827	17127.526417655482	15395.369873322
11	63831	17129.530674533364	15790.089103969
11	63863	17146.200660869491	17098.021046392
11	63904	17187.778277822217	17076.53390638
11	63908	17189.820615277602	15855.796287637
11	63912	17191.368289807387	17188.699077796
11	63926	17197.586793761948	13762.747806349
11	63937	17203.322801784249	17191.031934455
11	63956	17214.317526264829	17132.429649219
11	63975	17223.200536711591	16941.195827365
11	63979	17225.249898607477	11167.039919785
11	63983	17226.570821209476	10189.593528236
11	63987	17229.260181302133	11851.58221136
11	64001	17233.822759898712	17121.055895136
11	64028	17242.175406434149	15723.422358781
11	64036	17256.287962503159	17109.192811239
11	64059	17286.710057970146	14897.77644976
11	64070	17290.726750434974	14564.299791001
11	64097	17307.724229049815	16357.507193997
11	64101	17310.931388345144	17125.176805979
11	64115	17320.464587038425	14204.107874063
11	64121	17327.030736808246	13900.678181009
11	64130	17328.887741698191	12917.242464701
11	64134	17329.622268399221	13730.814515788
11	64147	17342.934537452515	13405.811274256
11	64151	17343.885506714719	12967.228976706
11	64155	17344.192401223719	12478.777274234
11	64159	17345.820175845356	12467.900752432
11	64203	17366.526278042353	12129.486253847
11	64218	17382.728114486682	12100.366165079
11	64222	17384.235109483077	11777.824591723
11	64231	17389.189563057689	11941.306121305
11	64244	17390.888692696098	10987.792448622
11	64262	17401.046719059743	10661.01544663
11	64266	17402.841041185494	16217.732782097
11	64270	17403.379660120038	10970.966868029
11	64274	17403.894128299809	10828.837058986
11	64278	17406.180385183485	10915.556497118
11	64289	17421.563350708786	10483.533208364
11	64293	17422.226848134403	10317.088183353
11	64318	17427.942480480092	14636.344431024
11	64325	17430.754715460917	16113.295841109
11	64331	17433.135332439248	13321.353200087
11	64342	17440.970505367287	16430.872168275
11	64374	17458.548304880741	14097.88569188
11	64411	17479.091972869471	16970.558610407
11	64420	17480.789907607917	15631.262614021
11	64442	17493.457018343834	17378.276722932
11	64451	17494.07248436507	16540.324793424
11	64457	17504.906423870891	10438.636646312
11	64461	17506.994831520599	13601.739920481
11	64465	17507.887554352718	17505.373667873
11	64469	17519.797023268521	16157.021061876
11	64480	17522.498021984711	16654.554223293
11	64491	17529.741671345528	14720.074403628
11	64502	17537.399119730208	15919.79811072
11	64520	17544.249289156794	17486.914958929
11	64526	17547.304756335804	17365.998410192
11	64530	17547.39661613084	17348.252602041
11	64539	17554.554794098731	17512.156862656
11	64543	17555.716258631753	15144.746325388
11	64547	17558.60055408549	12503.626476484
11	64558	17561.85125838572	12558.725912133
11	64562	17564.048081337387	11855.34321666
11	64578	17572.826881483496	11760.313914623
11	64617	17584.752606916971	17370.609893137
11	64623	17592.956589493136	17456.41433768
11	64629	17598.118648134911	12416.019870675
11	64652	17611.058205673112	13524.437461906
11	64663	17615.501897599876	15059.676691895
11	64667	17617.600622594068	13106.323485828
11	64671	17618.481812608785	14095.384450956
11	64700	17627.953110619968	13054.210030448
11	64703	17628.089337047227	16809.420665893
11	64712	17651.412017160747	16182.298197897
11	64722	17669.673701488949	16349.970804987

