version 2
run General-0-20181210-15:07:31-24276
attr configname General
attr datetime 20181210-15:07:31
attr experiment General
attr inifile omnetpp.ini
attr iterationvars ""
attr iterationvarsf ""
attr measurement ""
attr network ER_Optimize_One_2
attr processid 24276
attr repetition 0
attr replication #0
attr resultdir results
attr runnumber 0
attr seedset 0
param **.source_waiting_room.interArrivalTime exponential(1.0s)
param **.source_ambulance.interArrivalTime exponential(1.0s)
param **.nurse.serviceTime exponential(8s)
param **.nurse1.serviceTime exponential(8.1s)
param **.nurse2.serviceTime exponential(8.2s)
param **.doc.serviceTime exponential(6.9s)
param **.doc1.serviceTime exponential(7.3s)
param **.Xray.serviceTime exponential(6.8s)
param **.MRI.serviceTime exponential(7.5s)
param **.Surgery.serviceTime exponential(9.1s)
param **.source_waiting_room.numJobs 6600
param **.source_ambulance.numJobs 3400
param **.level_5_queue.capacity 2000
param **.level_3_4_queue.capacity 3000
param **.level_1_2_queue.capacity 2000
param **.doc2.serviceTime exponential(7.1s)
param **.triage_nurse_ambulance.randomGateIndex bernoulli(0.18)
param **.triage_nurse_waiting_room.randomGateIndex bernoulli(0.14)

vector 0 ER_Optimize_One_2.level_5_queue queueLength:vector ETV
attr interpolationmode sample-hold
attr title "queue length, vector"
vector 1 ER_Optimize_One_2.level_3_4_queue queueLength:vector ETV
attr interpolationmode sample-hold
attr title "queue length, vector"
vector 2 ER_Optimize_One_2.level_1_2_queue queueLength:vector ETV
attr interpolationmode sample-hold
attr title "queue length, vector"
vector 3 ER_Optimize_One_2.waiting_for_doc queueLength:vector ETV
attr interpolationmode sample-hold
attr title "queue length, vector"
vector 4 ER_Optimize_One_2.waiting_for_doc1 queueLength:vector ETV
attr interpolationmode sample-hold
attr title "queue length, vector"
vector 5 ER_Optimize_One_2.waiting_for_doc2 queueLength:vector ETV
attr interpolationmode sample-hold
attr title "queue length, vector"
vector 6 ER_Optimize_One_2.wait_for_work queueLength:vector ETV
attr interpolationmode sample-hold
attr title "queue length, vector"
vector 7 ER_Optimize_One_2.wait_for_work1 queueLength:vector ETV
attr interpolationmode sample-hold
attr title "queue length, vector"
vector 8 ER_Optimize_One_2.wait_for_result queueLength:vector ETV
attr interpolationmode sample-hold
attr title "queue length, vector"
vector 9 ER_Optimize_One_2.wait_for_result1 queueLength:vector ETV
attr interpolationmode sample-hold
attr title "queue length, vector"
vector 10 ER_Optimize_One_2.wait_for_result2 queueLength:vector ETV
attr interpolationmode sample-hold
attr title "queue length, vector"
vector 11 ER_Optimize_One_2.wait_for_work2 queueLength:vector ETV
attr interpolationmode sample-hold
attr title "queue length, vector"
vector 12 ER_Optimize_One_2.sink lifeTime:vector ETV
attr interpolationmode none
attr title "lifetime of arrived jobs, vector"
attr unit s
0	0	0	0
0	293	34.747655894197	1
0	307	36.30181572673	0
0	529	61.463704258264	1
0	562	64.804783537239	0
0	887	98.93241618714	1
0	903	100.570240074241	0
0	964	109.060575549027	1
0	968	110.295763861109	0
0	984	112.060886961502	1
0	1001	113.708050357401	0
0	1042	118.723765214568	1
0	1053	119.43641290135	0
0	1058	120.016913073364	1
0	1059	120.099311084698	0
0	1118	125.547818292783	1
0	1155	129.150341225534	0
0	1202	133.848044777834	1
0	1290	142.075024457645	2
0	1336	148.742157833285	3
0	1354	149.889930095801	2
0	1385	152.354744483669	3
0	1398	153.164166451969	4
0	1413	153.704390683742	5
0	1539	166.718404321139	6
0	1570	171.083436193642	5
0	1610	174.220726510623	4
0	1649	178.675663121879	5
0	1668	180.086529220052	4
0	1674	181.372369544592	3
0	1687	183.767193568123	2
0	1720	186.303012607208	1
0	1755	189.501374787027	0
0	1782	193.966742604424	1
0	1822	197.292403518866	0
0	1843	200.083313677803	1
0	1879	203.829089893202	2
0	1915	206.684964613221	1
0	1925	207.830954243504	0
0	2702	286.924852011429	1
0	2713	289.959969577373	0
0	2721	290.741745948105	1
0	2741	291.993606879056	0
0	2801	296.854571123429	1
0	2802	296.857859885164	0
0	2893	305.299977607219	1
0	2909	308.25755819284	0
0	3514	379.865487000404	1
0	3525	380.566302512709	0
0	3676	397.375953547829	1
0	3716	403.604252763379	0
0	3793	412.952014953923	1
0	3794	413.258884933699	0
0	3823	416.431209151847	1
0	3863	420.074976753014	0
0	3877	421.711526749805	1
0	3930	428.66117661296	2
0	3948	429.714246446254	3
0	3989	433.961934999627	2
0	4046	438.402975361146	1
0	4056	439.568255346495	0
0	4228	462.253014071796	1
0	4232	462.619828723667	0
0	4410	481.334633769744	1
0	4452	484.80717016754	0
0	4578	497.954978630461	1
0	4654	505.103939843249	2
0	4724	514.275690252052	3
0	4828	528.542967444945	2
0	4860	532.191830518709	3
0	4871	532.548470773117	4
0	4874	532.785842012353	5
0	4901	534.706133400636	4
0	4909	534.800514834812	5
0	4952	540.686564805102	6
0	4964	541.306665882489	7
0	5065	555.90362807637	8
0	5097	557.794374143838	7
0	5178	567.65589930988	8
0	5191	568.575388089625	9
0	5216	571.609433459077	10
0	5237	575.974031828489	11
0	5331	587.35771976413	12
0	5375	592.76810402171	11
0	5384	593.28809855264	12
0	5387	593.607454849535	13
0	5409	595.825592005959	12
0	5423	596.128750513965	13
0	5525	607.088644616113	14
0	5577	611.684889179753	15
0	5678	626.73561512342	14
0	5753	635.676557012976	15
0	5769	636.613105352038	16
0	5785	638.159788654227	17
0	5794	639.106460665474	18
0	5869	646.517575227887	17
0	5881	646.996603966033	18
0	5899	650.430108173139	19
0	6008	659.29473985561	18
0	6033	662.991684327067	17
0	6109	669.634240753052	18
0	6205	685.18400143641	17
0	6329	699.366632411834	16
0	6357	701.119063594775	17
0	6361	701.392545369145	16
0	6445	708.705735224882	17
0	6485	712.155133484214	18
0	6506	715.538865897521	19
0	6565	721.388805649345	18
0	6587	723.036444328732	17
0	6601	724.773450057274	18
0	6616	725.588423655379	19
0	6644	729.283415681343	20
0	6703	732.997976140741	21
0	6762	738.608127324984	22
0	6774	740.082338600349	23
0	6883	752.050470109201	24
0	6886	752.36268138327	25
0	6918	755.728757605574	24
0	6938	757.207540807689	25
0	6954	759.034895263148	24
0	6957	759.047661987794	23
0	7019	767.302262729434	22
0	7024	767.302754007408	23
0	7053	768.100009864482	24
0	7089	771.550991838937	25
0	7271	788.13616762505	26
0	7349	796.741438122514	25
0	7414	802.925343688487	24
0	7477	810.395792208865	25
0	7498	813.471889600201	26
0	7533	817.110254640234	25
0	7536	817.339563328129	24
0	7632	829.797572142171	23
0	7676	832.591391519029	24
0	7679	833.18285539177	25
0	7830	852.513895200948	26
0	7934	863.641916351777	27
0	8055	877.60897533333	28
0	8129	886.27409513318	29
0	8136	886.925149240108	28
0	8237	899.16636584044	29
0	8287	904.202733708427	30
0	8290	904.248264302953	31
0	8291	904.429565539923	30
0	8314	906.143835901549	29
0	8372	913.477484796467	30
0	8410	919.415155397061	31
0	8460	924.111395865474	30
0	8529	930.530565952968	31
0	8625	939.438273567443	32
0	8639	940.91628411603	31
0	8657	943.583944794446	30
0	8678	945.902644362179	31
0	8685	946.114634511333	30
0	8748	954.42955465463	29
0	8787	957.915470137015	28
0	8799	958.729837120217	29
0	8909	971.660303065483	30
0	8925	973.557846335691	29
0	9018	986.140964860036	28
0	9023	986.304833710593	29
0	9065	993.2106741602	30
0	9074	994.067314415389	31
0	9168	1001.129555388691	30
0	9177	1001.56232648174	29
0	9224	1008.932202084858	30
0	9285	1015.571739593166	29
0	9294	1016.743906958618	28
0	9355	1025.6960447063	27
0	9388	1028.166838670198	26
0	9401	1028.802782165267	27
0	9410	1029.493678543223	28
0	9450	1034.502254836759	29
0	9465	1036.095116619569	30
0	9474	1036.432373243617	31
0	9588	1045.85342069302	32
0	9615	1047.073253570634	33
0	9624	1048.42006108	34
0	9649	1051.212372592166	35
0	9659	1051.578803343992	34
0	9684	1055.882790743058	35
0	9801	1068.890573486256	34
0	9823	1071.48042549199	35
0	9827	1072.98594879884	34
0	9869	1076.678245463677	35
0	9911	1080.195360441547	36
0	9924	1080.575385532393	37
0	9979	1089.041923014203	38
0	10023	1093.631008179199	39
0	10076	1096.938101499868	38
0	10120	1100.660909921292	39
0	10135	1102.558275269251	40
0	10158	1105.554892528059	39
0	10283	1116.236495551911	40
0	10300	1117.603817471748	39
0	10309	1118.933498434498	38
0	10375	1125.138073706171	39
0	10427	1128.927702063934	40
0	10476	1132.370021902627	39
0	10506	1134.949990466945	38
0	10551	1141.202748616726	39
0	10601	1146.842903211326	38
0	10635	1148.627717490767	37
0	10784	1163.49571886659	36
0	10812	1165.516065859841	37
0	10835	1166.813816421826	36
0	10959	1179.726342790205	37
0	10979	1181.374217652402	38
0	11010	1183.91281735718	37
0	11072	1188.833676526909	38
0	11093	1189.871530605847	39
0	11198	1199.746101875607	40
0	11260	1206.312869938027	41
0	11272	1208.022864348477	40
0	11280	1209.192858276983	41
0	11305	1213.474076234831	40
0	11314	1213.980283155196	41
0	11321	1214.3161432416	40
0	11354	1217.239077480068	39
0	11422	1224.531831858909	40
0	11456	1228.113031256957	41
0	11498	1235.808424145065	40
0	11512	1237.106453177029	41
0	11530	1240.50811046444	42
0	11568	1244.683748598844	41
0	11628	1249.924062776113	42
0	11691	1258.230551231916	43
0	11758	1264.320642978722	44
0	11762	1264.522436879525	43
0	11814	1267.851235685956	44
0	11891	1275.321508335189	45
0	11910	1277.539362748831	44
0	11925	1279.199933655621	43
0	11947	1281.63708624815	42
0	11982	1284.859959473828	43
0	12019	1290.2927541081	44
0	12049	1293.118049821539	43
0	12090	1298.087238808122	42
0	12117	1300.281769149213	41
0	12209	1309.508489487966	40
0	12218	1310.728237932172	39
0	12253	1313.47267920391	40
0	12282	1316.334954763887	41
0	12334	1323.407568189824	40
0	12337	1323.672260923038	39
0	12381	1327.462774999619	38
0	12396	1328.53488421079	37
0	12522	1343.135760100074	38
0	12538	1343.919073463347	37
0	12595	1350.797426225976	36
0	12625	1354.170135257586	37
0	12754	1366.701764081039	36
0	12788	1371.641292958829	35
0	12807	1373.364767598559	36
0	12854	1375.297878571151	37
0	12929	1379.650244085973	36
0	12943	1380.797294947516	37
0	12990	1386.483659286015	36
0	13050	1391.97440953328	37
0	13149	1399.914330252707	38
0	13188	1402.797692478061	39
0	13283	1413.587502837172	40
0	13331	1417.482777515429	39
0	13336	1417.677232123529	40
0	13372	1420.289594594112	39
0	13428	1427.699062863765	40
0	13441	1428.62622097787	39
0	13455	1429.378110985061	40
0	13500	1434.660900224772	39
0	13520	1435.88568834045	40
0	13560	1438.81534767307	41
0	13563	1438.926584819024	42
0	13591	1442.050084370099	41
0	13608	1442.76075704394	40
0	13613	1442.87543387854	41
0	13616	1443.033216757862	42
0	13628	1444.17729254793	43
0	13631	1444.712661275844	44
0	13668	1448.351997733968	45
0	13713	1454.307684269624	44
0	13718	1454.325893287608	45
0	13815	1463.3851502976	46
0	13819	1463.664451206017	45
0	13826	1463.790352782162	44
0	13888	1470.391227368517	43
0	13968	1476.439871009532	44
0	14003	1480.760152737247	45
0	14049	1488.399531640984	46
0	14056	1489.020748783284	45
0	14071	1490.700989745177	46
0	14072	1490.866241327241	45
0	14093	1493.055196896499	44
0	14132	1495.292180212021	43
0	14148	1496.830771280927	42
0	14220	1501.960192870516	41
0	14245	1504.228071297361	42
0	14285	1508.460276853093	41
0	14297	1510.485925148996	40
0	14302	1510.736382391031	41
0	14473	1527.212708927664	40
0	14488	1528.493432027999	39
0	14521	1530.73583718647	40
0	14528	1531.896974061941	39
0	14531	1532.123999149489	38
0	14693	1545.511220480087	37
0	14696	1545.862244916422	36
0	14720	1548.682080935043	35
0	14824	1557.391422700855	34
0	14863	1561.696481362624	35
0	14878	1564.010454731809	36
0	14920	1569.618907251361	37
0	14960	1572.517799652035	36
0	15010	1577.745177425778	37
0	15014	1577.928116497024	36
0	15040	1581.694631261971	37
0	15090	1585.883822896583	38
0	15107	1588.25655743473	39
0	15116	1588.656884463224	40
0	15180	1593.154677568598	41
0	15271	1600.819916324311	42
0	15281	1601.514657889287	41
0	15308	1603.594959670545	40
0	15322	1604.503198271503	41
0	15323	1604.802321343882	40
0	15334	1605.113211693198	39
0	15381	1610.426744273527	40
0	15433	1617.100966701419	41
0	15464	1619.571152393742	42
0	15468	1620.470915852548	41
0	15480	1622.209376049739	40
0	15495	1624.331428045866	39
0	15524	1626.152512730316	38
0	15542	1629.057039304402	37
0	15564	1631.122740584978	38
0	15587	1633.230041324092	37
0	15614	1636.254159705358	38
0	15634	1637.261737310087	39
0	15668	1642.783699996322	38
0	15707	1645.687764141856	37
0	15715	1646.164041171727	38
0	15728	1649.630226430629	37
0	15816	1657.218469627713	38
0	15834	1658.808582395027	37
0	15925	1669.566073401953	36
0	15981	1673.015759089589	37
0	16013	1676.580968122432	36
0	16024	1678.341372613273	37
0	16064	1681.322301337559	38
0	16099	1686.277698740961	39
0	16158	1691.517457823752	40
0	16171	1692.516802281086	39
0	16218	1695.844664141762	40
0	16233	1696.993016651369	41
0	16295	1705.981077539424	40
0	16326	1708.201944175607	39
0	16344	1709.489837195981	40
0	16365	1711.82525288234	39
0	16370	1712.051864431382	40
0	16382	1712.775849866761	41
0	16414	1715.952748828102	42
0	16422	1716.52076308662	41
0	16463	1718.94891226201	40
0	16496	1722.294566900337	41
0	16555	1725.828443540368	42
0	16558	1725.867067536095	43
0	16636	1733.722379294986	42
0	16666	1736.021150847629	43
0	16703	1737.753319364473	44
0	16735	1740.154044317115	45
0	16741	1740.83927032913	46
0	16806	1746.586518605961	47
0	16875	1752.401696276256	48
0	16927	1757.784632339326	47
0	16969	1763.678137704892	48
0	16976	1764.31027226635	47
0	17018	1767.746979528794	46
0	17036	1768.235317741346	47
0	17169	1784.270980298696	46
0	17172	1784.393748396243	45
0	17199	1787.033075993354	46
0	17208	1788.832900778842	47
0	17250	1794.297029318523	46
0	17314	1803.251462014733	45
0	17337	1804.175588803337	46
0	17424	1811.822559525881	47
0	17434	1812.488406961491	48
0	17452	1813.668014836748	49
0	17456	1814.139970526995	48
0	17473	1816.758415884406	49
0	17492	1819.264125489014	50
0	17517	1820.614720551771	49
0	17615	1831.900192800088	50
0	17679	1841.873745683354	49
0	17796	1854.039158993562	50
0	17812	1856.010119071152	51
0	17860	1860.88959814958	50
0	17872	1862.243391685626	49
0	17890	1863.663740485203	48
0	18081	1884.369041013947	47
0	18103	1887.136400099952	46
0	18121	1888.588850094877	47
0	18209	1897.267446612831	46
0	18227	1899.269314659272	47
0	18280	1907.644311054315	48
0	18307	1910.984006911453	47
0	18316	1912.045338543185	46
0	18358	1914.784319834492	47
0	18375	1916.044144015193	48
0	18382	1917.530913794241	47
0	18452	1929.064548679079	46
0	18530	1937.645693591375	45
0	18544	1938.732112128954	46
0	18560	1939.152431889772	47
0	18599	1945.26987259041	46
0	18658	1953.075353870788	45
0	18664	1953.58603944575	44
0	18721	1960.0754792428	45
0	18746	1963.379596438065	46
0	18779	1967.242390487813	45
0	18801	1969.240167356948	44
0	18836	1974.447314118966	45
0	18863	1976.663130305863	46
0	18876	1978.408320866703	47
0	18915	1981.577605793295	46
0	18921	1983.046734803355	45
0	18933	1983.831046646124	44
0	18972	1988.755109791398	43
0	18987	1991.562447457831	42
0	19017	1994.005770727977	41
0	19047	1997.641231927642	40
0	19059	1998.55868233951	39
0	19073	1999.727120944411	40
0	19108	2001.509002057767	39
0	19113	2001.578512131024	40
0	19134	2004.31370527572	39
0	19212	2012.313722165046	38
0	19282	2019.215177304163	37
0	19300	2023.308045886417	36
0	19330	2027.475521036658	37
0	19387	2032.474253302807	38
0	19390	2032.774250758679	39
0	19469	2040.127963587177	38
0	19564	2049.710779199782	39
0	19571	2052.431684294479	38
0	19606	2055.972826197479	37
0	19614	2058.396396490676	36
0	19649	2060.926238355905	37
0	19667	2063.044683724016	38
0	19689	2065.650870878551	37
0	19703	2066.325014429071	38
0	19709	2067.385589645861	39
0	19734	2069.269976004876	38
0	19751	2070.654293954481	39
0	19768	2071.877162539547	40
0	19803	2074.514765386071	39
0	19815	2075.163223160521	40
0	19838	2076.708538836021	39
0	19911	2086.480413932383	40
0	19912	2087.293011368353	39
0	19988	2094.491410326141	40
0	20031	2099.371522116599	41
0	20066	2103.438483758097	40
0	20075	2104.602167975542	39
0	20137	2113.949121906946	38
0	20198	2118.753203057698	37
0	20240	2121.945549294729	38
0	20419	2138.183013690328	39
0	20439	2139.937627893749	38
0	20459	2142.316461179473	37
0	20496	2146.44892896639	38
0	20500	2146.640476798764	37
0	20527	2151.461215776667	36
0	20540	2151.813880211044	35
0	20564	2155.004838252556	34
0	20735	2171.296540939829	35
0	20751	2173.548164548067	36
0	20786	2175.939673868749	35
0	20799	2176.393039979582	36
0	20800	2176.693912971157	35
0	20936	2193.198220979157	36
0	21027	2201.006826551871	37
0	21049	2204.443073566844	36
0	21056	2204.719780582489	37
0	21069	2205.60167158303	36
0	21120	2211.474491303532	37
0	21151	2215.961640942554	38
0	21262	2225.387156061494	37
0	21283	2230.190471265557	36
0	21448	2243.368397774281	37
0	21489	2247.42984334624	38
0	21490	2247.877731781279	37
0	21536	2251.151549706296	36
0	21543	2252.130434940856	37
0	21685	2265.881438199929	36
0	21805	2278.388352573082	35
0	21820	2280.731458323725	34
0	21878	2287.457190216903	35
0	21899	2289.937523676829	36
0	21979	2299.156724660567	35
0	21989	2299.480253797308	34
0	22008	2301.513227296573	33
0	22026	2302.6205371281	32
0	22088	2308.341466020013	33
0	22105	2310.266213349564	34
0	22123	2311.842321690648	33
0	22141	2312.91561859972	32
0	22147	2313.667974319505	31
0	22196	2316.61930123789	32
0	22211	2317.731988958206	31
0	22240	2319.928323455578	30
0	22275	2323.100378254999	31
0	22296	2325.12428074581	32
0	22326	2327.194719717845	31
0	22370	2333.519815983927	32
0	22402	2338.067240748125	31
0	22410	2339.223688016047	32
0	22417	2339.502387704455	31
0	22422	2340.00845796321	32
0	22442	2342.181747678937	33
0	22462	2344.661046680794	34
0	22474	2345.709894468488	35
0	22505	2348.774002357075	34
0	22525	2350.250661096931	35
0	22651	2362.605869264901	36
0	22683	2365.346171839543	35
0	22705	2367.500025727341	34
0	22737	2369.326763951772	33
0	22770	2371.485315820541	32
0	22874	2381.524740293331	33
0	22892	2382.404585061976	34
0	23003	2392.738953721315	33
0	23008	2393.265704618912	34
0	23028	2394.224464171621	33
0	23048	2395.401614108366	34
0	23124	2404.2438944219	33
0	23141	2405.970417190818	34
0	23189	2412.273371758866	35
0	23192	2412.695578587211	36
0	23205	2415.105176309544	35
0	23219	2416.13894158006	36
0	23225	2416.920554149281	37
0	23235	2417.250016798584	38
0	23238	2418.129974047163	39
0	23249	2418.821554759151	38
0	23285	2422.251664427672	39
0	23306	2423.729521408499	38
0	23330	2426.288474985904	37
0	23379	2431.06894576494	36
0	23421	2437.201270849082	35
0	23431	2437.876187753331	34
0	23443	2440.526994723652	35
0	23488	2445.372288394721	34
0	23513	2446.464565604891	35
0	23531	2448.088213253885	36
0	23576	2452.477742832483	37
0	23599	2455.53789569922	38
0	23616	2457.821541383756	37
0	23668	2464.232693812514	38
0	23705	2467.385767797652	37
0	23735	2469.821443304636	38
0	23744	2470.828304234582	39
0	23747	2471.007865962422	40
0	23771	2474.019747386548	39
0	23781	2474.608436300889	38
0	23833	2482.112844928209	39
0	23839	2482.733237629278	40
0	23849	2484.848862234753	39
0	23887	2488.421187975667	40
0	23888	2488.712106334908	39
0	23924	2490.898376670767	38
0	23938	2491.844959369944	39
0	23953	2493.171494528485	40
0	23960	2493.331768074938	39
0	23984	2495.081263383355	40
0	24027	2500.843910910444	39
0	24121	2508.906009472679	40
0	24132	2510.031582245013	41
0	24165	2512.745228580212	42
0	24217	2521.239034264894	43
0	24293	2529.625258667389	44
0	24337	2534.530748476643	45
0	24357	2535.530681126912	44
0	24366	2536.340773023595	43
0	24383	2537.97398879303	44
0	24478	2546.835867069008	43
0	24515	2550.106650789737	44
0	24536	2551.367029074054	45
0	24563	2553.496880544014	44
0	24672	2562.110996727764	45
0	24769	2578.071365181187	44
0	24838	2585.701829085551	45
0	24899	2592.805240535524	44
0	24912	2593.428974741265	43
0	24917	2594.347369498535	44
0	24982	2601.882868932744	43
0	24997	2603.725263234609	42
0	25075	2609.525180965568	41
0	25146	2617.126735582484	40
0	25249	2628.378618751648	41
0	25286	2631.756091959012	40
0	25310	2634.066861100681	41
0	25329	2636.616927099451	40
0	25350	2638.490945873138	41
0	25357	2639.443258595539	40
0	25404	2643.875846280809	41
0	25442	2646.30930721034	42
0	25505	2653.106066776953	43
0	25506	2653.47168189321	42
0	25556	2659.269621913772	43
0	25566	2660.317585316461	42
0	25698	2675.500277830782	41
0	25756	2683.42818964709	42
0	25757	2683.430499034999	41
0	25768	2684.520486514364	42
0	25807	2687.754663998826	43
0	25894	2695.993422833209	42
0	25938	2700.836202930721	43
0	25976	2706.375497283538	44
0	25985	2707.518580090566	45
0	26040	2712.103328511325	44
0	26085	2716.344167112029	43
0	26090	2717.062336094571	44
0	26133	2720.499395730941	45
0	26141	2720.673252962032	44
0	26155	2722.955843931099	43
0	26234	2730.645950593995	44
0	26254	2732.612319823847	45
0	26257	2733.383496564137	46
0	26267	2734.516000800133	45
0	26289	2735.827968672896	44
0	26295	2736.748793998163	43
0	26306	2737.744091368667	44
0	26342	2740.516522652393	45
0	26350	2741.023456130052	44
0	26376	2744.323088016564	45
0	26411	2747.129997320098	46
0	26421	2748.916974952179	45
0	26429	2749.258141192861	46
0	26441	2750.138850004471	47
0	26463	2753.031324890741	46
0	26475	2754.285381807529	45
0	26495	2755.809838866062	46
0	26526	2758.520133863662	45
0	26543	2760.044184425953	46
0	26587	2765.335002609567	45
0	26599	2766.837168312297	44
0	26607	2767.574389950369	45
0	26655	2772.277358491132	46
0	26668	2774.064188431283	45
0	26679	2774.765547711924	46
0	26680	2774.897708851563	45
0	26715	2776.342030945213	46
0	26766	2781.165390319424	45
0	26774	2781.264373545957	46
0	26870	2794.547291603358	45
0	26873	2794.58833083456	44
0	26942	2801.6826980224	43
0	26977	2805.085395916785	42
0	27066	2813.153508051782	41
0	27075	2814.485681063742	40
0	27153	2821.177854484143	39
0	27170	2822.110962823108	40
0	27200	2824.590668707577	41
0	27226	2827.418824454111	40
0	27249	2829.382997478084	41
0	27255	2830.443531978147	42
0	27279	2831.114579992269	41
0	27314	2833.735581456537	42
0	27358	2838.330657990125	43
0	27399	2843.48093028296	44
0	27405	2844.550371441737	45
0	27416	2845.734931261099	46
0	27428	2847.442982769204	47
0	27434	2849.059906874792	48
0	27494	2853.760308004299	47
0	27563	2859.643283478967	46
0	27630	2866.361949302927	45
0	27641	2867.645048791021	46
0	27664	2869.467392973396	47
0	27665	2870.199929358864	46
0	27701	2873.656940022915	47
0	27714	2874.112688348443	48
0	27792	2881.329732260102	49
0	27875	2890.730608370087	48
0	28019	2905.105538986148	47
0	28038	2907.224984498978	48
0	28148	2919.057979256498	47
0	28175	2921.667324900741	46
0	28207	2924.334191257361	47
0	28287	2931.155956895131	48
0	28298	2932.233261703008	47
0	28318	2933.937343474359	46
0	28352	2938.045960949082	47
0	28452	2948.361358196819	46
0	28489	2950.314715072155	47
0	28558	2957.359521920948	46
0	28564	2958.144527757436	45
0	28608	2961.733163610256	44
0	28663	2966.308562929372	43
0	28684	2969.121959455712	42
0	28749	2976.066768911806	43
0	28776	2978.901019546703	44
0	28839	2983.999582578147	43
0	28863	2985.284892322294	44
0	28961	2995.99155102103	45
0	28973	2997.621811929236	46
0	29014	3001.038693292585	47
0	29044	3003.492660218467	46
0	29047	3003.533259071435	45
0	29169	3016.599132629028	46
0	29192	3019.234118974831	45
0	29266	3025.539792659631	46
0	29351	3034.433633176443	47
0	29477	3046.345400750954	48
0	29505	3048.578235607644	47
0	29519	3048.866632302824	48
0	29551	3050.846222291652	47
0	29590	3053.17651884413	48
0	29668	3061.805105421286	47
0	29671	3061.832498589218	46
0	29680	3062.234726800957	45
0	29785	3074.934446985714	44
0	29806	3078.361764352791	45
0	29941	3090.580044487465	46
0	29947	3091.159997833861	47
0	30025	3100.62567336112	48
0	30071	3105.225193797743	49
0	30089	3106.472057112989	48
0	30101	3107.690935603018	47
0	30116	3108.616937924228	46
0	30166	3116.201366986046	47
0	30210	3122.454987265382	46
0	30231	3125.038970341416	47
0	30234	3125.057034746732	48
0	30260	3126.760008669672	49
0	30409	3139.949245643873	50
0	30487	3147.004298650955	51
0	30521	3149.782249018896	52
0	30530	3151.838933760487	53
0	30543	3152.717109543227	52
0	30560	3153.501777605355	53
0	30575	3154.866335412814	54
0	30662	3163.363302051927	55
0	30698	3167.731403713252	54
0	30766	3173.486691683938	55
0	30794	3177.781688021595	56
0	30822	3178.977089428627	57
0	30880	3182.770524351352	58
0	30899	3186.097547857518	59
0	30932	3190.168232023539	58
0	30952	3191.800646408586	59
0	30967	3192.883622214337	60
0	31013	3198.291979172933	59
0	31019	3198.79465287132	58
0	31036	3201.148107697682	57
0	31133	3212.325049220282	58
0	31152	3215.617580241833	59
0	31155	3216.198127937326	60
0	31167	3216.516576736658	61
0	31240	3223.811415557108	60
0	31250	3226.450645541633	59
0	31261	3227.386290094603	60
0	31348	3238.782480963816	59
0	31360	3240.120405145596	58
0	31381	3241.482750366597	59
0	31425	3245.651930994388	60
0	31466	3248.624751892993	59
0	31485	3249.652523299159	60
0	31587	3258.262063319359	59
0	31634	3262.340375702522	60
0	31755	3273.597603418223	61
0	31815	3281.401379927825	62
0	31848	3283.499204940497	63
0	31887	3286.897130311006	64
0	31899	3288.764883138415	63
0	31902	3288.863857744338	62
0	31923	3291.481288480613	63
0	31944	3293.249774195472	64
0	31947	3293.27556195837	65
0	31953	3294.279152113363	66
0	32024	3301.466033555464	65
0	32027	3302.221490928077	64
0	32052	3305.728148991162	63
0	32136	3314.799060491053	62
0	32224	3323.61922058357	61
0	32272	3328.322815998716	62
0	32289	3329.956189921386	63
0	32377	3341.195510201651	62
0	32413	3342.493975728301	61
0	32483	3349.440053637387	60
0	32581	3356.080547235839	61
0	32598	3357.166641131051	62
0	32622	3359.747658600072	63
0	32657	3364.898147568316	62
0	32675	3366.701897476427	63
0	32684	3367.537508037636	64
0	32718	3369.500096265811	65
0	32728	3371.149129570674	64
0	32747	3373.967911154477	63
0	32755	3375.508929318833	64
0	32871	3392.256793307559	65
0	32886	3393.227731634152	66
0	32928	3401.817744059116	67
0	32935	3403.886074612161	66
0	32938	3404.002781878767	65
0	32968	3409.289750227333	64
0	33003	3415.256094608322	65
0	33020	3417.45071834369	64
0	33029	3417.532039122508	65
0	33051	3422.059410461365	66
0	33155	3439.403682651456	67
0	33165	3439.883630398412	68
0	33223	3446.351862780869	67
0	33230	3447.632988558417	66
0	33238	3448.744837475533	67
0	33252	3450.398669352972	66
0	33257	3451.632178093712	65
0	33262	3451.75396543162	66
0	33279	3453.770071473244	67
0	33282	3453.962896362801	68
0	33303	3456.126789310835	69
0	33332	3459.917594482479	68
0	33358	3462.916602273095	67
0	33447	3473.625892054569	68
0	33488	3479.356448419551	69
0	33516	3483.077337506743	70
0	33534	3484.760553042023	71
0	33546	3486.814844370022	72
0	33550	3487.68543630419	71
0	33582	3491.890290269359	70
0	33632	3497.836667087711	69
0	33660	3500.445242356853	68
0	33680	3502.701039859891	67
0	33801	3522.261109371	68
0	33853	3533.816587369822	67
0	33935	3543.2176897958	66
0	33949	3545.241607372816	67
0	33996	3553.297029837529	68
0	34012	3556.505788255974	69
0	34060	3563.568469396575	70
0	34091	3568.916228053152	71
0	34098	3571.625383374599	70
0	34112	3573.765123178021	71
0	34141	3575.821499008589	72
0	34158	3579.155135796224	71
0	34171	3581.252056103067	70
0	34189	3584.935139417728	69
0	34256	3594.490052146194	68
0	34269	3596.613779544212	67
0	34310	3602.774211940404	68
0	34314	3603.883638727854	67
0	34348	3607.752897611549	66
0	34404	3615.531635541336	67
0	34435	3625.054253079963	66
0	34476	3630.111848032709	67
0	34483	3630.686276169714	68
0	34489	3630.888119113839	69
0	34534	3636.929566240008	70
0	34557	3638.929720274206	71
0	34646	3652.062609164262	70
0	34700	3661.384424246854	71
0	34740	3670.869351115689	70
0	34815	3681.326475244354	71
0	34825	3684.03784455237	70
0	34834	3684.447475984055	69
0	34845	3685.79396266277	68
0	34856	3687.75116653505	67
0	34865	3688.584074612495	66
0	34920	3696.038301516805	65
0	34927	3696.572262828528	66
0	34959	3701.646317318107	67
0	34960	3702.249228395772	66
0	34969	3703.207953759355	67
0	34998	3706.282770422209	68
0	35022	3708.430666175448	67
0	35030	3709.363603138366	68
0	35040	3710.808354037109	67
0	35070	3714.658065570232	68
0	35073	3714.790233393344	69
0	35093	3717.69185322627	70
0	35118	3719.556337917433	71
0	35121	3720.938569452648	72
0	35152	3723.073245046261	73
0	35158	3724.390455884251	72
0	35179	3729.487733954813	73
0	35182	3730.058144581257	74
0	35192	3733.273920154075	75
0	35203	3734.193409545557	74
0	35225	3741.214110890457	73
0	35236	3742.532423238167	74
0	35294	3751.295646837743	73
0	35302	3751.841174815873	74
0	35317	3755.618531333398	75
0	35333	3758.185067790437	74
0	35350	3760.100021183007	73
0	35369	3763.005937444627	74
0	35380	3765.238204298036	73
0	35383	3765.335921078948	72
0	35392	3766.949576629815	71
0	35437	3772.843657447494	72
0	35447	3776.539029259011	71
0	35471	3778.968309334865	72
0	35472	3779.090190309407	71
0	35512	3785.418396756824	72
0	35538	3789.150212604935	73
0	35539	3789.278587961279	72
0	35553	3791.369910288662	73
0	35557	3792.761517464689	72
0	35579	3794.996359573372	73
0	35598	3796.778355646339	72
0	35601	3796.78724945127	71
0	35623	3801.479546213866	70
0	35641	3805.924992703046	69
0	35686	3811.887673793206	70
0	35733	3816.606900903096	71
0	35742	3817.967801009165	72
0	35746	3818.531547734557	71
0	35774	3823.649810147245	72
0	35789	3826.655393119668	71
0	35809	3830.380245353584	72
0	35844	3835.709899272433	73
0	35881	3840.507399380216	72
0	35890	3841.621590485124	71
0	35893	3841.83424519144	70
0	35925	3846.040435560088	69
0	35947	3848.26613257217	70
0	35950	3848.977732703354	71
0	35953	3849.766997582642	72
0	35958	3852.279320917125	71
0	35967	3852.930463405735	70
0	35989	3857.174448776625	69
0	35995	3857.59847660458	68
0	36003	3857.780944819438	69
0	36024	3860.983206671669	68
0	36033	3861.951760004559	69
0	36036	3862.176811481521	70
0	36037	3862.284932273488	69
0	36053	3863.317184388118	70
0	36054	3864.027442845451	69
0	36155	3878.751450731818	70
0	36188	3883.882486094572	71
0	36221	3890.473663821557	70
0	36262	3896.277376655747	69
0	36280	3898.421037324109	70
0	36289	3900.655907717513	71
0	36307	3903.451384853955	70
0	36334	3906.813764179808	71
0	36375	3911.682808148573	70
0	36451	3921.502852783003	71
0	36484	3925.045656714167	72
0	36519	3929.620322625065	73
0	36541	3934.711050985553	74
0	36542	3934.876014796523	73
0	36580	3943.986227952051	74
0	36605	3948.523748256958	75
0	36632	3954.325462421787	76
0	36644	3955.428768176001	75
0	36674	3962.752982328438	74
0	36694	3964.952128262908	75
0	36703	3967.570843593831	76
0	36712	3968.125610061591	75
0	36717	3968.815431317121	76
0	36733	3970.388307303842	75
0	36751	3971.696056205043	74
0	36762	3972.551191821541	75
0	36800	3978.501080362188	74
0	36812	3979.533001248136	75
0	36815	3979.617234005482	76
0	36836	3980.764115497622	77
0	36837	3981.024582960132	76
0	36884	3988.901922422817	75
0	36952	4000.710282053456	76
0	36977	4006.390311302385	75
0	36989	4008.017460370009	74
0	37009	4010.999538979753	73
0	37019	4011.651304800747	72
0	37059	4015.604019735205	73
0	37088	4021.714988384393	72
0	37151	4034.690123335676	73
0	37184	4036.35448724258	74
0	37205	4038.781143950176	73
0	37208	4039.3380700422	72
0	37222	4041.098586789914	73
0	37306	4051.792854511728	74
0	37315	4052.349116718694	75
0	37324	4054.797990252488	76
0	37346	4056.525362819739	77
0	37354	4058.202337108397	76
0	37381	4062.40867845066	75
0	37384	4062.829579639094	74
0	37466	4070.82649194313	73
0	37573	4085.080011091441	72
0	37579	4085.31923092074	71
0	37585	4087.418111576924	70
0	37592	4089.413740556718	69
0	37644	4097.483928568607	70
0	37677	4101.809287889052	71
0	37692	4103.13413166533	70
0	37733	4110.5328881555	71
0	37741	4112.414120100157	72
0	37742	4112.860816474791	71
0	37764	4114.738846590765	70
0	37800	4118.475054224033	69
0	37827	4120.633274261721	70
0	37874	4129.331511024538	71
0	37928	4136.595200533386	70
0	37933	4137.618498117026	71
0	37952	4139.636649906196	72
0	38046	4151.691935278435	73
0	38047	4152.196232435923	72
0	38063	4153.784753669072	73
0	38064	4153.788663501033	72
0	38076	4155.691487935324	73
0	38122	4163.637508658446	74
0	38123	4164.3795186712	73
0	38141	4165.347363527451	72
0	38159	4169.201144823254	71
0	38207	4176.724599757193	72
0	38267	4185.910207067839	71
0	38276	4187.015421423093	72
0	38295	4189.158041939314	73
0	38312	4191.456674454846	74
0	38332	4196.525483654386	73
0	38357	4202.127654248892	74
0	38358	4202.524489487493	73
0	38414	4211.079912307363	74
0	38439	4213.568645769932	75
0	38443	4214.010896722267	74
0	38461	4215.835710468755	73
0	38477	4218.09253663633	72
0	38483	4218.152277774524	71
0	38486	4218.341924584476	70
0	38491	4219.70398966981	71
0	38501	4221.095977988667	70
0	38514	4222.820959348482	69
0	38523	4223.456627366808	68
0	38531	4223.847137564543	69
0	38541	4225.049284368825	70
0	38558	4229.953199243011	71
0	38571	4233.292191826405	70
0	38576	4233.464179736072	71
0	38633	4240.103116602848	72
0	38657	4243.64203899674	73
0	38688	4246.618305698855	74
0	38769	4260.062628162419	73
0	38821	4269.206661254566	74
0	38827	4269.905598004948	75
0	38865	4274.583040846057	74
0	38891	4276.43660500303	73
0	39004	4292.125325020994	74
0	39078	4302.889245090276	75
0	39124	4309.308986415904	74
0	39127	4310.745109887609	73
0	39159	4315.209962616483	74
0	39160	4315.495949811741	73
0	39222	4324.541190609243	74
0	39233	4325.63719600536	75
0	39249	4329.777343004673	74
0	39278	4336.291561194897	75
0	39288	4338.995474339748	74
0	39302	4340.642128706806	75
0	39314	4345.574912764006	76
0	39384	4355.081511496093	75
0	39395	4358.471818202782	76
0	39429	4364.308215816326	77
0	39449	4367.466393188451	78
0	39471	4369.351685733681	79
0	39512	4375.962389521943	80
0	39553	4383.395325643228	81
0	39574	4388.710324130796	82
0	39602	4393.526112889439	83
0	39621	4397.131387022543	84
0	39717	4407.780918533697	85
0	39720	4407.794163601054	86
0	39726	4408.144859979979	85
0	39738	4410.691139962107	84
0	39820	4424.425315060684	83
0	39870	4431.176790807037	84
0	39889	4433.865313763762	83
0	39904	4434.807018056704	84
0	39914	4435.606780352383	85
0	39923	4435.758999090591	86
0	39946	4439.212354476611	85
0	39969	4442.422785137667	84
0	39983	4445.813189348039	83
0	39991	4446.22954977545	84
0	40011	4452.283654002635	83
0	40064	4462.055555178168	82
0	40079	4464.046883424904	83
0	40107	4469.429110900643	84
0	40114	4470.467083729773	85
0	40136	4473.304153353871	84
0	40165	4477.135498698131	85
0	40169	4477.701225408397	84
0	40206	4482.058905885176	83
0	40295	4493.335721286538	84
0	40303	4494.978395190818	83
0	40331	4499.461539149083	84
0	40374	4508.353725032199	85
0	40389	4512.766820061986	86
0	40393	4513.547534471684	85
0	40412	4515.514738703454	86
0	40442	4521.050659963575	87
0	40445	4521.349681876891	88
0	40495	4528.635309535436	87
0	40503	4531.120273585347	88
0	40577	4539.36919676569	89
0	40599	4542.67524277722	88
0	40606	4543.783242518885	89
0	40632	4546.124792386427	90
0	40641	4547.561546393506	91
0	40660	4553.120528133471	90
0	40679	4555.99981775861	89
0	40682	4556.767777610522	88
0	40714	4562.871410631979	89
0	40743	4566.723972778939	90
0	40778	4573.658987371606	91
0	40807	4576.412108081064	92
0	40818	4577.794454364435	91
0	40942	4594.65432367542	90
0	40979	4600.139365400988	91
0	41076	4624.821867388689	92
0	41109	4629.651539730479	91
0	41166	4637.561449424741	90
0	41182	4641.130127338582	89
0	41222	4649.098337746456	90
0	41225	4649.733916685599	91
0	41246	4653.293725716191	92
0	41291	4658.173431528412	93
0	41297	4659.073723400063	94
0	41316	4660.971373575831	95
0	41380	4671.383222815851	96
0	41389	4672.706982764347	95
0	41434	4679.127118764513	96
0	41489	4689.304052650276	95
0	41496	4690.168958421546	94
0	41527	4694.39004172069	93
0	41556	4700.853622310776	94
0	41563	4703.395007859677	93
0	41591	4709.766111818114	92
0	41594	4710.497674343963	91
0	41599	4710.954372754181	92
0	41620	4714.788726524144	93
0	41646	4717.5762942829	94
0	41649	4717.779873098689	95
0	41658	4719.199869173033	96
0	41697	4725.986300305307	97
0	41708	4727.595673454876	96
0	41744	4731.58360132598	97
0	41845	4750.503145350448	96
0	41850	4750.857101847542	97
0	41933	4761.873112759946	96
0	41951	4764.863459330261	95
0	41972	4767.645546005556	96
0	42014	4777.111636588798	95
0	42017	4777.11478169096	94
0	42035	4778.167502171823	93
0	42038	4778.179199208415	92
0	42058	4779.733802511203	91
0	42071	4783.916409954223	90
0	42146	4799.836239189255	89
0	42154	4801.366544382818	90
0	42184	4807.394619673954	91
0	42205	4810.807380905603	92
0	42206	4812.784295237646	91
0	42238	4818.757508340023	92
0	42291	4827.019924881961	91
0	42299	4828.009985807797	92
0	42316	4830.76112078581	91
0	42323	4832.789921492689	90
0	42338	4833.976686491837	91
0	42373	4839.803149424685	90
0	42387	4841.15266418867	91
0	42396	4841.515554720742	92
0	42397	4841.558347783368	91
0	42426	4845.784496545781	92
0	42442	4848.438898112992	91
0	42447	4849.934272603254	92
0	42451	4851.825325357288	91
0	42483	4854.90930368206	90
0	42505	4858.391458905262	89
0	42551	4863.788820863636	88
0	42636	4872.545527937676	89
0	42706	4880.500337584221	90
0	42707	4882.365110949874	89
0	42716	4883.874014052138	88
0	42797	4899.092805223814	89
0	42859	4907.506339761363	90
0	42862	4907.955225385202	91
0	42915	4915.923604696626	92
0	42938	4918.0343998657	93
0	42948	4920.396173624455	94
0	42958	4922.639064461531	93
0	42963	4922.680319788281	94
0	43088	4945.732903582695	93
0	43103	4950.113575782217	92
0	43115	4951.609880785475	91
0	43120	4952.281994000974	92
0	43127	4953.206315842522	93
0	43151	4955.807605772048	94
0	43158	4959.07731232857	95
0	43189	4962.276109543628	94
0	43198	4962.490489923573	93
0	43219	4964.912792075336	92
0	43264	4970.564785904793	93
0	43267	4970.835476558814	94
0	43271	4971.014156310877	93
0	43339	4978.952893709357	94
0	43393	4988.761987775625	95
0	43396	4990.911727553653	96
0	43431	4995.462980346737	95
0	43440	4996.631738852064	96
0	43451	4998.208679467257	97
0	43486	5002.544012549708	96
0	43511	5004.878917136249	97
0	43562	5008.956569000669	98
0	43574	5010.316359057484	99
0	43583	5010.829497665225	98
0	43616	5014.569995076572	99
0	43644	5020.494720172475	98
0	43652	5022.555875108593	99
0	43664	5024.907406258965	100
0	43728	5030.816539118239	101
0	43732	5031.772960373016	100
0	43757	5036.057174937405	99
0	43790	5039.139590155881	100
0	43825	5045.542841988774	101
0	43845	5050.054394149997	102
0	43852	5051.075704520145	103
0	43863	5052.659303332164	102
0	43868	5053.298142508	103
0	43882	5054.708243357021	104
0	43889	5057.232964165807	103
0	43923	5062.084238142678	102
0	43928	5063.536118586644	103
0	43956	5070.385824396443	102
0	43986	5077.049864255766	101
0	43995	5078.097212850591	100
0	44010	5079.526992132582	101
0	44021	5080.172486289632	100
0	44045	5083.048197917611	99
0	44091	5086.254596403349	100
0	44094	5086.285112336497	101
0	44104	5087.427617896186	102
0	44164	5098.868195315843	101
0	44208	5107.124001769399	100
0	44360	5136.882078967051	99
0	44399	5141.305132557487	100
0	44426	5148.200260896588	101
0	44433	5148.80854183016	100
0	44519	5157.167099446467	99
0	44541	5163.23589641028	98
0	44578	5166.99648679724	99
0	44591	5167.356954310836	100
0	44657	5181.16146935292	99
0	44712	5189.845863922323	100
0	44734	5193.40459892797	101
0	44748	5194.305134729968	100
0	44762	5194.679291762827	101
0	44768	5195.315586578166	102
0	44769	5195.467919132311	101
0	44779	5195.678893878657	102
0	44799	5198.922571525558	103
0	44826	5205.078435748388	102
0	44845	5207.66041866629	101
0	44894	5218.232091398573	100
0	44902	5218.923865679341	99
0	44938	5222.810829810638	98
0	45004	5234.107389505396	99
0	45007	5234.557442325254	100
0	45019	5235.366928525262	101
0	45038	5237.783451542876	102
0	45053	5240.101626216601	103
0	45068	5245.941734822521	104
0	45216	5270.317137680268	105
0	45219	5270.366484232508	106
0	45222	5270.390553334586	107
0	45233	5271.704480732266	108
0	45266	5278.233402702677	107
0	45276	5279.068071075793	106
0	45288	5281.596461044658	105
0	45323	5290.187536676194	104
0	45361	5300.175818022557	103
0	45370	5303.162509415134	102
0	45382	5304.058353455443	103
0	45392	5308.134837967103	102
0	45398	5309.252786658557	101
0	45497	5327.115733660782	100
0	45513	5330.02041020325	99
0	45539	5333.974545683526	98
0	45544	5335.145295197767	99
0	45569	5337.841273550869	100
0	45587	5340.231312665831	101
0	45595	5341.452914003311	102
0	45606	5342.759687755663	101
0	45614	5343.908726438938	102
0	45617	5344.42797608259	103
0	45618	5345.004090363895	102
0	45624	5346.160127218369	101
0	45648	5351.395755961764	102
0	45651	5351.480135587748	103
0	45654	5351.489414391263	104
0	45670	5356.97740871165	103
0	45673	5357.45372684803	102
0	45679	5358.03311505184	101
0	45689	5359.255495569189	100
0	45709	5362.534548325859	101
0	45712	5363.119793360803	102
0	45730	5365.507925649823	101
0	45745	5367.108345086074	102
0	45768	5370.859418059877	103
0	45780	5373.512784161865	104
0	45809	5376.694942708921	103
0	45825	5379.307416491945	104
0	45840	5380.326288972364	103
0	45860	5382.465949656628	104
0	45922	5391.590081545929	105
0	45925	5391.639313602386	106
0	45945	5396.247577339331	105
0	45956	5397.791823305039	106
0	45991	5402.87833897746	107
0	46024	5407.279899672632	108
0	46031	5408.721093877613	109
0	46090	5419.902393487381	108
0	46118	5422.829214155069	107
0	46199	5431.495250724814	108
0	46242	5440.269021060371	107
0	46327	5453.659036216835	106
0	46343	5455.372248482893	107
0	46347	5456.403405953769	106
0	46373	5461.161207324667	105
0	46379	5461.412008817228	104
0	46388	5462.114016658645	103
0	46406	5465.25889339906	104
0	46407	5465.467365645443	103
0	46416	5465.660166788209	104
0	46417	5465.845329538226	103
0	46424	5466.699776271	102
0	46432	5467.16387617703	103
0	46461	5470.339802995592	104
0	46468	5472.059234540077	105
0	46481	5474.138396509183	104
0	46487	5474.61907879143	103
0	46515	5476.96485004927	102
0	46601	5490.625555650612	101
0	46610	5493.601424801228	100
0	46615	5494.520550674555	101
0	46648	5498.288501276066	102
0	46663	5500.539484025788	101
0	46677	5500.91808396864	102
0	46709	5508.568638127795	103
0	46722	5510.442304633851	102
0	46749	5514.591340566021	103
0	46767	5518.741751551053	104
0	46778	5519.54960464479	105
0	46785	5519.716979686965	106
0	46903	5537.839832433464	107
0	46938	5544.130762622249	106
0	46968	5549.729509504609	107
0	47117	5567.912026308458	108
0	47120	5568.073860837976	109
0	47130	5571.043974138545	108
0	47162	5573.237068682194	107
0	47187	5577.574115104488	106
0	47210	5581.881886256781	107
0	47235	5587.602422878595	106
0	47279	5598.069161624442	107
0	47283	5598.927636728056	106
0	47299	5601.051048022987	107
0	47300	5601.09968193923	106
0	47308	5601.697726413878	107
0	47322	5605.702023956242	108
0	47345	5611.10484959317	107
0	47440	5622.960608283777	108
0	47462	5627.440596705973	109
0	47468	5628.611994347891	110
0	47493	5632.819178810314	109
0	47505	5635.186835100324	108
0	47508	5635.221162039229	107
0	47546	5639.701983908662	108
0	47552	5640.104289608908	109
0	47559	5641.748137309045	108
0	47568	5643.266962802662	109
0	47571	5644.656371870614	110
0	47592	5648.1143936167	109
0	47610	5651.796036832548	108
0	47693	5661.886828372685	107
0	47751	5672.1584314384	106
0	47798	5676.995445066807	105
0	47885	5687.120120659749	106
0	47911	5691.167639398016	105
0	47951	5701.287640906467	104
0	47969	5703.504985725499	105
0	47979	5705.503318359612	106
0	48018	5710.514025536776	107
0	48037	5715.910604413035	108
0	48067	5720.204423234881	109
0	48078	5720.600441968583	110
0	48124	5728.35808528166	111
0	48150	5734.245686393011	112
0	48209	5744.398374189516	113
0	48210	5745.147388660311	112
0	48220	5747.107848651788	113
0	48224	5748.296210537673	112
0	48318	5760.058448868033	113
0	48329	5763.129787476872	112
0	48334	5763.216020358263	113
0	48340	5765.851564798413	114
0	48346	5767.93184385774	115
0	48349	5769.458433673241	114
0	48376	5773.599414951293	115
0	48433	5783.715709799022	116
0	48434	5784.646201750672	115
0	48443	5785.808736902034	114
0	48479	5789.095685538906	113
0	48541	5795.805243730356	112
0	48555	5797.493253369144	111
0	48593	5801.617010869245	112
0	48615	5804.194195287334	113
0	48644	5808.591678963658	114
0	48645	5808.937252723864	113
0	48682	5817.228803277491	114
0	48693	5818.334156191901	115
0	48738	5823.651301281547	116
0	48791	5832.053138924627	117
0	48792	5832.145745264957	116
0	48822	5834.959049372987	115
0	48865	5843.151923954525	114
0	48870	5843.619884799237	115
0	48876	5843.908493605841	116
0	48877	5844.023987227898	115
0	48893	5845.407616664723	116
0	48894	5845.637821722084	115
0	48922	5850.407317188465	116
0	48934	5856.223187147892	115
0	48964	5859.356549636845	114
0	48975	5861.023613113454	113
0	48978	5861.168280111852	112
0	48993	5864.356260992522	111
0	49002	5867.379761434192	110
0	49037	5872.105930874764	111
0	49046	5873.723376007452	112
0	49062	5875.722661808263	111
0	49083	5878.103555782458	112
0	49097	5883.02789724003	111
0	49129	5888.144865858242	110
0	49172	5893.671122327203	111
0	49179	5895.438375014464	110
0	49193	5897.218265739971	111
0	49231	5906.78173976281	112
0	49236	5907.283855638566	111
0	49246	5907.933401982014	112
0	49261	5909.247724209378	111
0	49285	5916.732606694509	110
0	49288	5917.754093167879	109
0	49337	5923.423849815499	110
0	49369	5928.946986676901	109
0	49375	5930.115098419798	108
0	49460	5943.727149465758	107
0	49535	5952.946016169379	108
0	49551	5956.425337075109	107
0	49559	5957.258733877156	108
0	49563	5957.718007946542	107
0	49575	5960.103204890475	108
0	49618	5965.220986790322	107
0	49715	5980.595188700331	106
0	49746	5988.367444085919	105
0	49749	5988.415065988935	104
0	49853	6005.656543426596	105
0	49986	6029.239665346158	104
0	49998	6032.014456122738	103
0	50016	6036.529431876299	104
0	50040	6039.991913148797	103
0	50078	6044.518128019164	104
0	50114	6049.752662166389	105
0	50139	6052.436284467172	106
0	50166	6055.1557479228	105
0	50169	6056.232342102482	104
0	50178	6057.665151683064	103
0	50204	6063.800012554059	104
0	50223	6067.227193887976	105
0	50229	6067.4462977996	106
0	50252	6069.144246667513	107
0	50256	6069.73381095867	106
0	50259	6070.18395663075	105
0	50298	6078.024840834035	106
0	50299	6078.811002972932	105
0	50307	6079.530421863236	106
0	50346	6083.527673932901	105
0	50351	6083.787608973871	106
0	50389	6089.753443277485	105
0	50399	6090.15312141627	104
0	50430	6096.638405121241	103
0	50436	6097.526964891665	102
0	50458	6099.329039940356	103
0	50472	6103.385392014123	104
0	50475	6104.18094440475	105
0	50478	6104.397505447784	106
0	50489	6106.526920548302	107
0	50517	6109.329818169835	108
0	50520	6109.94158534268	109
0	50567	6113.663590462798	110
0	50578	6114.609699399708	109
0	50583	6117.061351371756	108
0	50591	6117.201800921268	109
0	50606	6119.602120678387	110
0	50626	6124.368404471044	111
0	50686	6133.837076283643	112
0	50707	6136.195530074196	111
0	50714	6136.548895595021	110
0	50719	6136.62670810491	111
0	50729	6139.088631187177	112
0	50756	6142.520777549476	113
0	50763	6145.09764406587	114
0	50773	6146.739768121693	113
0	50779	6148.366793849723	112
0	50826	6153.430968205846	113
0	50832	6154.445450408516	114
0	50849	6155.87881251197	113
0	50873	6157.993289840277	114
0	50876	6159.276477683837	115
0	50879	6160.513225979172	116
0	50898	6163.690011055097	115
0	50909	6164.381203149557	116
0	50923	6167.596180231338	115
0	50937	6168.475842878347	116
0	50943	6169.171115475267	117
0	50967	6173.484759454873	118
0	51004	6184.179289488695	117
0	51056	6191.376950575866	118
0	51059	6191.628983315501	119
0	51068	6194.993679661015	120
0	51100	6197.806636635731	121
0	51107	6198.212408220848	120
0	51140	6201.90391102784	119
0	51156	6203.130476590841	118
0	51161	6203.262352243941	119
0	51172	6207.977504340471	120
0	51182	6212.084788244275	119
0	51211	6217.834991395455	118
0	51248	6222.494343240219	119
0	51251	6223.005737454688	120
0	51273	6226.009879500541	121
0	51318	6232.986061569296	122
0	51319	6233.495498271964	121
0	51340	6236.109766384872	122
0	51347	6237.824027661447	121
0	51353	6242.444087863358	120
0	51378	6246.428339104188	119
0	51381	6246.594544743696	118
0	51414	6252.66749800869	119
0	51427	6254.621859706523	118
0	51445	6258.454556529407	117
0	51455	6260.37325214933	116
0	51463	6260.602565758743	117
0	51480	6265.189959297001	118
0	51492	6267.575694935148	119
0	51507	6272.182873610926	120
0	51528	6276.119697059097	119
0	51549	6282.702525367629	118
0	51567	6286.195435353612	119
0	51582	6288.608037875036	120
0	51598	6290.720363424976	119
0	51620	6294.60078668947	118
0	51676	6301.337394188909	117
0	51731	6307.672105982185	118
0	51746	6313.057995636559	117
0	51777	6319.546536719777	118
0	51785	6321.784682195225	119
0	51791	6323.498587022936	118
0	51811	6327.816231047975	117
0	51839	6333.093182219262	118
0	51887	6345.083848430298	117
0	51906	6348.129019242702	118
0	51912	6349.179145300246	119
0	51967	6356.942029232836	120
0	51970	6357.212275583697	121
0	51987	6362.375082285043	122
0	52035	6371.66371113429	121
0	52058	6374.662760368642	120
0	52071	6377.324906640498	121
0	52087	6380.852553685202	120
0	52093	6381.399440514929	119
0	52098	6381.65471408352	120
0	52126	6387.607142628687	121
0	52150	6393.073346188479	122
0	52157	6393.299538750889	121
0	52193	6398.6625989941	120
0	52211	6402.283742426298	119
0	52234	6407.035531689403	120
0	52268	6410.753123383768	119
0	52295	6414.67575170327	118
0	52300	6415.171520768317	119
0	52338	6421.696956289186	120
0	52423	6450.41100751446	121
0	52424	6451.905687880515	120
0	52447	6454.962299688886	119
0	52462	6459.503628278016	120
0	52465	6464.046081204375	121
0	52491	6470.727587223303	120
0	52502	6472.950877384631	121
0	52513	6474.654855609856	122
0	52516	6475.010356996323	123
0	52534	6480.172677646826	122
0	52554	6482.381136995997	121
0	52564	6482.830099925271	120
0	52577	6485.078421756344	121
0	52578	6485.107222468936	120
0	52630	6493.159811807749	121
0	52686	6505.704024493978	120
0	52696	6506.540736598281	121
0	52739	6513.411535809651	122
0	52744	6514.988698622739	121
0	52814	6529.460615485831	120
0	52833	6533.209346778394	119
0	52851	6540.168141738987	118
0	52872	6563.294313608263	117
0	52879	6567.337761349841	116
0	52882	6567.739684403424	115
0	52965	6604.391844315395	114
0	52968	6605.391419953223	113
0	53006	6627.367705141965	112
0	53009	6629.139435309825	111
0	53017	6630.742346968647	110
0	53038	6636.57491620531	109
0	53052	6640.826596927955	108
0	53065	6645.240213627032	107
0	53076	6645.883093256419	106
0	53079	6646.695572183242	105
0	53092	6648.044929081706	104
0	53123	6659.432102702311	103
0	53130	6659.831950945992	102
0	53137	6661.714630409551	101
0	53140	6661.821820704132	100
0	53162	6674.797143509037	99
0	53188	6684.081398525033	98
0	53197	6685.896665240273	97
0	53200	6689.574873115563	96
0	53218	6698.009146145035	95
0	53232	6699.767468750968	94
0	53259	6716.077484468284	93
0	53262	6716.49635935782	92
0	53269	6718.039471548813	91
0	53272	6719.766094213638	90
0	53313	6736.089619450669	89
0	53360	6759.822834868609	88
0	53378	6766.122101222739	87
0	53384	6767.032815178467	86
0	53400	6783.035526291036	85
0	53403	6787.174286122018	84
0	53480	6817.870510216591	83
0	53485	6826.781505710877	82
0	53495	6832.272090642	81
0	53523	6852.948506337046	80
0	53551	6862.148727444373	79
0	53613	6885.485441528733	78
0	53628	6896.232771414737	77
0	53653	6907.655781565671	76
0	53667	6914.978514005656	75
0	53691	6926.71400154017	74
0	53729	6938.206645940281	73
0	53788	6961.869264396989	72
0	53848	6996.115691996345	71
0	53851	6999.23286654018	70
0	53858	7001.084727275969	69
0	53876	7009.294704844116	68
0	53882	7013.051837283015	67
0	53888	7014.679153634044	66
0	53891	7015.613162365	65
0	53923	7031.875315178971	64
0	53953	7039.870813284805	63
0	53960	7040.865944512769	62
0	53994	7047.020982781678	61
0	54017	7055.303399800483	60
0	54037	7067.508464022268	59
0	54058	7076.340809801175	58
0	54061	7077.704288033681	57
0	54072	7082.050869857704	56
0	54132	7128.387817035811	55
0	54135	7130.326111588225	54
0	54169	7143.561601598853	53
0	54205	7158.270888143968	52
0	54239	7168.547570503617	51
0	54242	7175.479096031152	50
0	54248	7178.636817636199	49
0	54287	7188.787864302163	48
0	54320	7211.026480893453	47
0	54327	7215.085914940426	46
0	54334	7215.847979972651	45
0	54346	7220.906365825335	44
0	54349	7222.883163430307	43
0	54352	7223.051908222231	42
0	54357	7225.838196348966	41
0	54412	7256.245741444123	40
0	54415	7259.818917482192	39
0	54539	7307.982139067398	38
0	54545	7309.445074267601	37
0	54577	7322.603418297372	36
0	54590	7324.344250139672	35
0	54605	7330.349228567079	34
0	54622	7334.783944996327	33
0	54642	7346.606098659049	32
0	54709	7362.925788141358	31
0	54725	7367.653565802444	30
0	54728	7371.178590661593	29
0	54751	7381.604820390453	28
0	54769	7389.102478283833	27
0	54772	7393.743233102059	26
0	54812	7413.211253918386	25
0	54815	7418.017699047936	24
0	54831	7418.756299778436	23
0	54834	7419.517799145902	22
0	54869	7433.495338935898	21
0	54887	7438.59720647765	20
0	54903	7450.536770178171	19
0	54914	7460.025417575667	18
0	55022	7493.868502675665	17
0	55031	7494.693228738472	16
0	55034	7499.280717603978	15
0	55044	7500.816975479168	14
0	55051	7505.033730074193	13
0	55089	7518.880282951494	12
0	55122	7529.791937942263	11
0	55158	7548.814697670578	10
0	55161	7549.567682901417	9
0	55168	7551.995252195024	8
0	55179	7556.739345183476	7
0	55193	7560.005571500712	6
0	55217	7564.84365493946	5
0	55220	7565.065773537936	4
0	55223	7565.437356004169	3
0	55229	7568.383998430779	2
0	55249	7578.034913308457	1
0	55284	7588.92723428407	0
1	0	0	0
1	7	0.898560388484	1
1	10	2.051805262613	2
1	13	2.850105724368	3
1	16	3.827112150761	4
1	19	3.930769316816	5
1	22	4.283928455954	6
1	25	4.312240314483	7
1	28	4.342313125047	8
1	31	4.630596455325	9
1	34	4.991759473298	10
1	37	5.645642040519	11
1	44	6.30280765565	12
1	47	6.393968681774	13
1	50	6.414394270173	14
1	53	7.95288331381	15
1	56	8.201881933612	16
1	57	8.273981869479	15
1	65	9.458667572447	16
1	68	10.242196191554	17
1	71	10.861125651181	18
1	74	11.063907129509	19
1	77	11.189781538947	20
1	80	12.211213413296	21
1	83	12.365943093796	22
1	95	13.115488916927	23
1	101	14.564906045722	24
1	107	15.260363571783	25
1	110	15.545255553989	26
1	113	16.207360248958	27
1	116	16.504803531357	28
1	123	17.649942486057	29
1	129	19.085275270236	30
1	132	19.147390560702	31
1	138	20.246303028253	32
1	144	20.482509734336	33
1	147	20.531180137942	34
1	150	21.467241697713	35
1	156	21.860354255017	36
1	159	21.871552424127	37
1	165	22.437678565824	38
1	177	23.495504979176	39
1	184	24.367420832802	40
1	191	25.988065908476	41
1	194	26.105021318268	42
1	197	26.326049270303	43
1	200	26.474761539555	44
1	203	26.693642136062	45
1	210	27.173093515418	46
1	216	28.148195449574	47
1	219	28.249230224883	48
1	247	31.998261684467	49
1	250	32.126318449778	50
1	253	32.477494539159	51
1	256	32.603883175584	52
1	259	32.635915036023	53
1	262	32.986584124446	54
1	265	33.052881525928	55
1	268	33.17079941178	56
1	275	34.00689694375	57
1	278	34.232071052993	58
1	284	34.330721361411	59
1	287	34.417491843751	60
1	290	34.74283225928	61
1	296	34.752233009944	62
1	303	35.794013664123	63
1	306	36.101531387885	64
1	312	36.594983545199	65
1	315	36.608731511142	66
1	318	36.615296003995	67
1	321	36.620002544487	68
1	324	37.752636686459	69
1	331	38.067358347314	70
1	334	38.374472583555	71
1	337	38.660493556063	72
1	342	39.420279009528	71
1	347	39.518886523892	72
1	360	40.537545253911	73
1	363	41.133924648241	74
1	366	41.342501525029	75
1	369	41.466028172391	76
1	374	42.922846730955	77
1	377	43.453569227572	78
1	382	44.578851244416	79
1	385	44.866261720486	80
1	388	44.976931231485	81
1	391	45.242000562893	82
1	394	46.12986197333	83
1	395	46.2989675832	82
1	400	47.207696857466	83
1	407	48.341301684536	84
1	410	48.89269767467	85
1	413	49.825100555077	86
1	416	49.844480336425	87
1	419	50.203407552295	88
1	422	50.333165215124	89
1	425	50.675764839822	90
1	428	51.282727750951	91
1	439	51.783713874041	92
1	442	51.842688821025	93
1	445	52.220741887815	94
1	448	52.254945306173	95
1	449	52.470096530697	94
1	454	52.645240806784	95
1	467	55.478485300597	96
1	468	55.605850277105	95
1	473	55.727480785455	96
1	490	57.962451861706	97
1	491	58.048534174214	96
1	511	59.616295061107	97
1	514	59.748478770722	98
1	532	61.497491043816	99
1	535	61.632407657308	100
1	538	62.099680223718	101
1	541	62.644537351863	102
1	544	62.696449904046	103
1	547	63.151361748838	104
1	554	63.430458823996	105
1	557	63.876711644515	106
1	570	65.547337882621	107
1	579	65.877165995793	108
1	582	65.961316805294	109
1	588	66.214822510437	110
1	609	68.427060875994	111
1	615	69.099366798844	112
1	618	69.287984512675	113
1	621	69.598952317645	114
1	626	70.735548812902	115
1	636	72.732720780392	116
1	637	72.950369733342	115
1	642	73.106607276295	116
1	645	73.345360149143	117
1	648	73.596958762256	118
1	651	73.843818031055	119
1	654	73.978499686838	120
1	657	74.580178673362	121
1	660	74.686796806469	122
1	674	75.827934709328	123
1	677	77.019792812983	124
1	678	77.064077227104	123
1	690	78.276184824192	124
1	691	78.667615883309	123
1	703	79.413723329733	124
1	706	80.023017490779	125
1	715	81.683563345517	126
1	724	82.919063812022	127
1	727	83.179415223569	128
1	728	83.564723751824	127
1	736	84.662670017153	128
1	739	85.312978511044	129
1	752	85.700520092642	130
1	755	85.705551539232	131
1	758	86.074283386459	132
1	761	86.25972236828	133
1	770	87.398780018953	134
1	773	88.059283098702	135
1	776	88.240047067334	136
1	779	88.50068719671	137
1	784	89.613946036511	138
1	787	89.990375388032	139
1	799	91.261622456245	140
1	813	92.572594824405	141
1	816	93.147470929448	142
1	819	93.272503519371	143
1	826	94.001027362105	144
1	829	94.566634025682	145
1	832	95.070913958933	146
1	844	95.262840035592	147
1	847	95.44311433517	148
1	850	95.576454958443	149
1	857	95.904292199579	150
1	869	97.102077405064	151
1	872	97.278635213999	152
1	875	98.485393871215	153
1	878	98.532081614859	154
1	881	98.594261472296	155
1	890	98.997529051927	156
1	899	99.808670074155	157
1	902	99.897655943304	158
1	908	101.598659678636	159
1	914	102.481540223593	160
1	915	102.582258219402	159
1	923	103.199786703701	160
1	926	104.053627038867	161
1	934	104.748798382856	162
1	937	104.986238894136	163
1	940	105.012375495691	164
1	947	107.849015689066	165
1	953	107.968439569609	166
1	958	108.657874107457	167
1	961	108.844479332433	168
1	965	109.617640644275	167
1	976	110.544818031677	168
1	987	112.502054655042	169
1	990	112.748830439963	170
1	997	113.208621757739	171
1	1000	113.522241742997	172
1	1006	113.732775031201	173
1	1012	114.935255137481	174
1	1015	115.456333958566	175
1	1023	116.298470261403	176
1	1030	117.808988536036	177
1	1033	118.331956189692	178
1	1036	118.596226653828	179
1	1039	118.668857842017	180
1	1045	118.738352165221	181
1	1048	118.74984541543	182
1	1064	120.222049573424	183
1	1067	120.305425783712	184
1	1070	120.586949806183	185
1	1076	121.13260752095	186
1	1079	121.336936995331	187
1	1082	121.813415577929	188
1	1091	122.90222734416	189
1	1094	123.107180740139	190
1	1100	123.549402048203	191
1	1103	123.776483612125	192
1	1106	124.158466503527	193
1	1109	124.926224999875	194
1	1112	125.25962833825	195
1	1115	125.347962754862	196
1	1121	125.737546325761	197
1	1124	125.796074224708	198
1	1130	126.990087595303	199
1	1133	127.101563794815	200
1	1142	128.245254415402	201
1	1145	128.317673525517	202
1	1148	128.327408934858	203
1	1151	128.869206029513	204
1	1154	129.012459050895	205
1	1162	130.522920652119	206
1	1165	130.5534929243	207
1	1168	130.568558701615	208
1	1171	130.648637557559	209
1	1178	131.380182896692	210
1	1181	131.915587247785	211
1	1187	132.161910773386	212
1	1190	132.751791784849	213
1	1193	133.564690146035	214
1	1196	133.692759192329	215
1	1199	133.738885306409	216
1	1212	134.622887157338	217
1	1218	134.994359593616	218
1	1234	137.337599523709	219
1	1241	137.424216518156	220
1	1244	137.755716646885	221
1	1247	137.853836169514	222
1	1250	138.409495082672	223
1	1253	139.050468627936	224
1	1254	139.260865023471	223
1	1267	139.918438609954	224
1	1270	140.934636121218	225
1	1273	140.944450557616	226
1	1276	141.313033497227	227
1	1279	141.37499882153	228
1	1282	141.578126598634	229
1	1293	142.686082018931	230
1	1296	144.651201821419	231
1	1302	145.720024591329	232
1	1313	147.227706235821	233
1	1324	148.115204380718	234
1	1327	148.21898574158	235
1	1333	148.708285978043	236
1	1342	149.463958505523	235
1	1347	149.51982316904	236
1	1350	149.536286453025	237
1	1353	149.741138720172	238
1	1362	151.39434458892	239
1	1373	151.935919705967	240
1	1376	151.993512622784	241
1	1379	152.084020092932	242
1	1395	153.093664503608	243
1	1403	153.454439867092	244
1	1404	153.491353724898	243
1	1420	154.163388730642	244
1	1423	154.176358771514	245
1	1434	155.126981426931	246
1	1437	155.304858184787	247
1	1438	155.856116905901	246
1	1443	156.323075763594	247
1	1449	157.344794111004	248
1	1455	157.412328267881	249
1	1462	157.835920889976	250
1	1465	158.986583482905	251
1	1468	159.030989334301	252
1	1471	159.465796177388	253
1	1488	160.035922643361	254
1	1489	161.315058804073	253
1	1494	161.765042281044	254
1	1497	162.08143710981	255
1	1500	162.300941076384	256
1	1505	162.528577012407	257
1	1512	164.065028468573	258
1	1515	164.329810741911	259
1	1521	164.758318346091	260
1	1524	165.055691873999	261
1	1527	165.118403157904	262
1	1530	165.536570098302	263
1	1533	166.312893101412	264
1	1536	166.441931604596	265
1	1542	166.977516577021	266
1	1545	167.649899479059	267
1	1551	167.81027726499	268
1	1554	168.980712995004	269
1	1560	169.871113662259	270
1	1566	170.67085899041	271
1	1575	171.147374811383	272
1	1578	172.0058160568	273
1	1579	172.171294096108	272
1	1584	172.277371848482	273
1	1587	172.528833891231	274
1	1594	172.880155172773	275
1	1597	172.978417357808	276
1	1600	173.313820028147	277
1	1601	173.698668362542	276
1	1609	174.124313175329	277
1	1615	174.319319082399	278
1	1623	175.521512562824	277
1	1628	176.308893883586	278
1	1631	176.450286996319	279
1	1640	177.136230812364	280
1	1646	178.082332553618	281
1	1652	178.795464079066	282
1	1655	179.270803748708	283
1	1658	179.37619987862	284
1	1661	179.866644575276	285
1	1664	179.94183638444	286
1	1667	179.961325677392	287
1	1683	182.601515962337	288
1	1686	183.123627266748	289
1	1692	183.8522357678	290
1	1695	183.926764038669	291
1	1702	184.171076816213	292
1	1725	186.360723530771	293
1	1734	187.620443462579	294
1	1744	188.939836661557	295
1	1747	189.050352538159	296
1	1754	189.47879356695	297
1	1760	189.937969525145	298
1	1763	190.619836901203	299
1	1770	192.833087142166	300
1	1773	192.853476752302	301
1	1776	193.648349588368	302
1	1779	193.852040323242	303
1	1785	194.0125244306	304
1	1795	195.376703752648	305
1	1798	195.401536960394	306
1	1805	195.906790814302	307
1	1815	196.384925407364	308
1	1818	196.605371820381	309
1	1821	196.613919839026	310
1	1833	198.874178238099	311
1	1840	199.216352929715	312
1	1853	200.504243168825	313
1	1856	200.57575505418	314
1	1859	201.421514965737	315
1	1862	201.464283766506	316
1	1865	201.481299390236	317
1	1873	202.673615164455	318
1	1874	203.393159348266	317
1	1886	204.235502759949	318
1	1889	204.337804540959	319
1	1892	204.712163795996	320
1	1899	204.921264713264	321
1	1902	205.016549196136	322
1	1905	205.275008444854	323
1	1908	205.446033763019	324
1	1911	205.803152435576	325
1	1914	206.422325785988	326
1	1924	207.386825547748	327
1	1930	207.983172882732	328
1	1933	208.460170633676	329
1	1940	209.241339423664	330
1	1943	209.440878031612	331
1	1946	209.779319164429	332
1	1958	210.059185816442	333
1	1961	210.382954947185	334
1	1964	210.552064584809	335
1	1967	210.908780837482	336
1	1970	211.083691097578	337
1	1971	211.864344219835	336
1	1988	213.422486537319	337
1	1991	213.432551801192	338
1	1994	214.012841389175	339
1	1997	214.092411544268	340
1	2000	214.504588421803	341
1	2003	214.788808165331	342
1	2006	214.829229742984	343
1	2009	214.891045891632	344
1	2012	214.954069335889	345
1	2018	215.28466378635	346
1	2021	215.855169774425	347
1	2026	216.062873060637	348
1	2027	216.653896782948	347
1	2032	217.31886865941	348
1	2039	217.681915813804	349
1	2042	218.591486518677	350
1	2045	219.638678774169	351
1	2058	222.649939533409	350
1	2066	223.381459788262	351
1	2069	223.533047727803	352
1	2076	223.903026907554	353
1	2079	224.905589315882	354
1	2089	225.981133033607	355
1	2092	226.39283361148	356
1	2095	227.118816547417	357
1	2098	227.262039818898	358
1	2101	227.363855460875	359
1	2109	227.784523133275	360
1	2112	228.299970683282	361
1	2115	228.338259481054	362
1	2128	229.915984952709	363
1	2131	231.592919685701	364
1	2132	231.888187780614	363
1	2141	232.513703085282	364
1	2144	232.634161353051	365
1	2147	232.951930694433	366
1	2159	234.48687335802	367
1	2162	234.634505241251	368
1	2165	234.93646024474	369
1	2170	235.332068163741	370
1	2182	236.490904911792	371
1	2185	236.985043401337	372
1	2196	238.353097422712	373
1	2199	238.863592585415	374
1	2205	239.266623327888	375
1	2208	239.342169156485	376
1	2211	239.551733642211	377
1	2225	240.714769451838	378
1	2233	241.841990862111	379
1	2236	241.861337046306	380
1	2239	242.027146915597	381
1	2242	242.087464939375	382
1	2249	242.723515410499	383
1	2252	243.334269585364	384
1	2258	243.824460335863	385
1	2264	243.970232710726	386
1	2267	244.631312511556	387
1	2270	245.244279780238	388
1	2277	245.512502873509	389
1	2280	245.644714473338	390
1	2287	247.244410355018	391
1	2290	247.587915029665	392
1	2293	247.610133681684	393
1	2303	248.079741713813	394
1	2306	248.808250357119	395
1	2309	249.751934291414	394
1	2314	249.922365093585	395
1	2317	250.533047555316	396
1	2320	250.650117594644	397
1	2323	250.692227029399	398
1	2326	251.169371319525	399
1	2329	251.212048974279	400
1	2332	251.242456968043	401
1	2335	251.556568786766	402
1	2341	252.579025385366	403
1	2348	252.924579064458	402
1	2357	253.612319882489	403
1	2368	253.793781093934	404
1	2371	254.311704539005	405
1	2374	255.054428288704	406
1	2377	255.508715865766	407
1	2382	255.630983642416	408
1	2385	255.650291747609	409
1	2388	255.720137040744	410
1	2391	256.380413767865	411
1	2394	256.847566994325	412
1	2397	257.099706670758	413
1	2400	257.183666710791	414
1	2409	257.570226260615	415
1	2412	257.628467214092	416
1	2415	257.696906089475	417
1	2418	257.764761967523	418
1	2425	258.055045762318	419
1	2428	259.704623727114	420
1	2431	260.476382408762	421
1	2438	261.867028669839	422
1	2444	262.752102391835	423
1	2455	263.503374765505	424
1	2461	263.719791103895	425
1	2464	263.994920124258	426
1	2467	264.095425647991	427
1	2470	264.150892931111	428
1	2475	265.252289009418	429
1	2478	265.466371204081	430
1	2481	266.144163641564	431
1	2491	267.01090471223	432
1	2499	267.483133460874	433
1	2502	267.624585565864	434
1	2505	267.848374338	435
1	2508	267.968529186621	436
1	2514	268.570033085691	437
1	2521	269.33882915892	438
1	2526	269.980663465022	439
1	2529	269.984531288209	440
1	2533	270.75119574682	439
1	2538	271.130238323614	440
1	2539	271.438654176243	439
1	2548	272.28975428962	440
1	2551	272.687815294608	441
1	2559	272.870070559412	442
1	2566	273.407254296498	443
1	2569	274.310805311678	444
1	2578	274.688050619566	445
1	2581	274.899291796119	446
1	2584	274.972650803556	447
1	2593	275.282359863204	448
1	2600	275.870403674881	449
1	2612	276.930069195796	450
1	2619	277.996334244824	451
1	2625	279.153033534523	452
1	2630	279.43392469002	453
1	2633	279.677854359881	454
1	2636	279.859433577542	455
1	2643	280.788603643412	456
1	2646	281.004303484688	457
1	2652	281.234429252845	458
1	2660	282.42022749231	459
1	2663	282.778080164638	460
1	2669	283.093835825264	461
1	2672	284.158179299256	462
1	2690	285.681849579596	463
1	2693	285.964951408586	464
1	2696	286.799826462586	465
1	2699	286.872364328525	466
1	2712	289.621386865349	467
1	2724	290.782560448456	468
1	2727	291.257712596898	469
1	2737	291.782473040972	470
1	2740	291.803392867509	471
1	2746	292.573930188275	472
1	2749	292.688974318192	473
1	2755	293.007696377782	474
1	2758	293.474568555244	475
1	2761	294.577893857944	476
1	2764	294.967284061	477
1	2770	295.188327400985	478
1	2773	295.273201124796	479
1	2776	295.321683328544	480
1	2779	295.661834691027	481
1	2786	296.120109254082	482
1	2795	296.788907938252	483
1	2798	296.821331583963	484
1	2807	297.054845290001	485
1	2810	297.97672454828	486
1	2818	299.40085446132	487
1	2829	299.819613813576	488
1	2835	300.834240567841	489
1	2838	300.847828140844	490
1	2844	300.9068571937	491
1	2847	300.943782550366	492
1	2850	301.634880076694	493
1	2853	301.667685631417	494
1	2854	301.924468603844	493
1	2859	302.277756422693	494
1	2862	302.350713095642	495
1	2865	302.391161144885	496
1	2871	303.031987216383	497
1	2881	304.050837024906	498
1	2884	304.518461102174	499
1	2890	305.243384538482	500
1	2896	307.358068784872	501
1	2903	307.528446143558	502
1	2906	307.56311084612	503
1	2921	309.003229981856	504
1	2924	309.447948436811	505
1	2927	309.727738021797	506
1	2933	312.214428604866	507
1	2936	312.295660741561	508
1	2939	312.407995422213	509
1	2942	313.056065781896	510
1	2950	313.397768128224	511
1	2960	313.936973399172	512
1	2963	314.381871868157	513
1	2973	315.465730443381	514
1	2976	315.615951894896	515
1	2979	315.846321342693	516
1	2980	316.033162177689	515
1	2985	316.208126698874	516
1	2988	316.413853926525	517
1	2991	316.56232531296	518
1	2994	316.609431150448	519
1	2997	316.819848053682	520
1	3000	317.555641380694	521
1	3003	318.027237101144	522
1	3009	318.304440539661	523
1	3012	318.726843989064	524
1	3013	319.614578570311	523
1	3018	320.200321765717	524
1	3021	320.238423582964	525
1	3028	322.308989247602	526
1	3031	322.759799058231	527
1	3034	322.806088564149	528
1	3042	323.199570961117	529
1	3049	325.009209991892	530
1	3057	325.612020899897	531
1	3062	326.125229281131	532
1	3065	326.204659282717	533
1	3072	326.664268789668	534
1	3075	326.901834332599	535
1	3078	326.963053764722	536
1	3081	327.869814010094	537
1	3087	329.050744027854	538
1	3095	330.377536345354	539
1	3096	330.39895380892	538
1	3101	330.570359334154	539
1	3118	331.396739124452	538
1	3123	331.814220468442	539
1	3126	332.180055307581	540
1	3133	334.686676523211	541
1	3138	335.112495389274	540
1	3159	337.586175176887	541
1	3165	338.879247114763	542
1	3171	338.981628617425	543
1	3174	339.226085510022	544
1	3179	340.487021037241	543
1	3187	341.338038083742	542
1	3192	341.560673732087	543
1	3195	341.850309430015	544
1	3198	342.202809241166	545
1	3203	344.542909297682	546
1	3206	344.722673385855	547
1	3209	345.44197015813	548
1	3220	347.164841986062	549
1	3226	347.433226649468	550
1	3229	347.805508432606	551
1	3232	348.478128341408	552
1	3239	348.887567654077	553
1	3242	349.073580356461	554
1	3245	349.319049838602	555
1	3263	351.783116643003	556
1	3266	352.207008983327	557
1	3273	352.861052545845	558
1	3276	352.961759526621	559
1	3283	354.782506481828	560
1	3286	355.16402797206	561
1	3287	355.228915226956	560
1	3292	355.282244167096	561
1	3299	355.757735524262	562
1	3315	358.51587516449	563
1	3318	358.922367732055	564
1	3321	359.112699903624	565
1	3324	359.699905274922	566
1	3332	360.204585483752	565
1	3337	360.922783660218	566
1	3343	362.431532341199	567
1	3352	362.981587263221	566
1	3357	363.325732331414	567
1	3368	364.1448368748	568
1	3371	365.235396690685	569
1	3374	366.214979212964	570
1	3377	366.45556824072	571
1	3390	367.433131714885	572
1	3398	367.93058655529	573
1	3401	368.056293444055	574
1	3404	368.097855562853	575
1	3407	368.140099878939	576
1	3412	368.751219030067	577
1	3422	371.033569595053	578
1	3428	372.345055619272	579
1	3434	373.064160101437	578
1	3439	373.198587289619	579
1	3440	373.316401662379	578
1	3445	373.478798767724	579
1	3450	373.70489426547	580
1	3455	374.391425804138	579
1	3479	375.718408284267	580
1	3482	375.997696186279	581
1	3485	376.550887407948	582
1	3488	376.885980288437	583
1	3489	377.137632208189	582
1	3494	377.154950816779	583
1	3497	377.950226970368	584
1	3505	378.210108922449	585
1	3508	378.986323796883	586
1	3511	379.660492026348	587
1	3517	380.096257749345	588
1	3520	380.234779591456	589
1	3534	380.87241131071	590
1	3537	381.16171063888	591
1	3540	381.759955854234	592
1	3543	382.100055437379	593
1	3547	384.985725471615	592
1	3555	385.341805851808	593
1	3558	385.494744088554	594
1	3563	385.875610242914	595
1	3566	385.985161246322	596
1	3569	386.861000487465	597
1	3572	386.88557263324	598
1	3575	387.285437975777	599
1	3578	387.447895058207	600
1	3584	388.341348875092	601
1	3594	388.756685218562	602
1	3601	389.366892482881	603
1	3604	390.497133321809	604
1	3611	391.099341615859	605
1	3614	391.183210777679	606
1	3622	391.314073713458	607
1	3627	392.534677585318	608
1	3636	393.077057279041	609
1	3639	393.088477365585	610
1	3646	393.75113224127	611
1	3649	393.803558260122	612
1	3652	393.804323812904	613
1	3669	397.170836572317	614
1	3679	397.511461375469	615
1	3682	398.018939539475	616
1	3688	398.604938889225	617
1	3694	399.446260904146	618
1	3697	399.625098950583	619
1	3700	399.660501825953	620
1	3703	400.156216469698	621
1	3706	400.350430397749	622
1	3709	400.435432507981	623
1	3713	402.150192089195	622
1	3721	403.699746926914	623
1	3740	406.193483291576	622
1	3748	406.524627470706	623
1	3751	406.630267746262	624
1	3752	406.712235787944	623
1	3755	406.851618102429	622
1	3760	408.053162007738	623
1	3773	409.40555646055	624
1	3776	409.71518968632	625
1	3783	411.362425689354	626
1	3786	411.466075270421	627
1	3799	413.4566931369	628
1	3802	414.096136130298	629
1	3805	414.672845085393	630
1	3808	414.899489803827	631
1	3820	415.920986254593	632
1	3826	416.503261585745	633
1	3831	416.719951589354	632
1	3836	416.736105146166	633
1	3839	417.241536714664	634
1	3842	418.045797212483	635
1	3845	418.430906570712	636
1	3846	418.589041468867	635
1	3854	419.537720265232	634
1	3859	419.955047702429	635
1	3862	420.032895908062	636
1	3868	420.48421749364	637
1	3874	421.408850413409	638
1	3883	421.868493441453	639
1	3895	423.144647331718	640
1	3902	424.161836624462	641
1	3905	425.216645734834	642
1	3918	426.592022838459	643
1	3921	427.114928769384	644
1	3922	427.609394082854	643
1	3933	429.057042035494	644
1	3936	429.257294990412	645
1	3939	429.439164132495	646
1	3942	429.459228911166	647
1	3945	429.708367806336	648
1	3951	430.945210069418	649
1	3954	431.182331359087	650
1	3957	431.355963232876	651
1	3960	431.396952275599	652
1	3966	431.80166414089	653
1	3973	432.390852662969	654
1	3982	433.168158058773	653
1	3994	434.144191367071	654
1	4004	434.949823309902	655
1	4011	435.036336086366	656
1	4014	435.049501708856	657
1	4017	435.500838975504	658
1	4020	435.784226825677	659
1	4023	436.464636678215	660
1	4026	436.629845227736	661
1	4029	436.88404270668	662
1	4039	437.589410206251	663
1	4045	438.229224951912	664
1	4051	438.509994029348	665
1	4061	439.803832135967	666
1	4067	440.896459131933	667
1	4070	441.122864923466	668
1	4073	442.40790288978	669
1	4076	443.015879756925	670
1	4079	443.300390588681	671
1	4084	444.296535846215	672
1	4085	444.430657983533	671
1	4093	445.055149278389	672
1	4096	445.565869179331	673
1	4099	446.178103885249	674
1	4102	446.684247126095	675
1	4105	446.68430769789	676
1	4106	447.594712393993	675
1	4111	447.726189596786	676
1	4114	447.799390487936	677
1	4120	448.156921422027	678
1	4123	448.666451859364	679
1	4126	448.829467434931	680
1	4129	449.03538441412	681
1	4132	451.227010063172	682
1	4135	451.679969644758	683
1	4140	452.73839945316	684
1	4143	453.160434840314	685
1	4146	453.195344503348	686
1	4152	453.956388609309	687
1	4161	454.926012830484	688
1	4174	456.621123184615	689
1	4175	456.646107627698	688
1	4180	456.646284139182	689
1	4188	456.832396270373	690
1	4191	456.890005721157	691
1	4192	457.154990386872	690
1	4200	458.150245418879	691
1	4209	458.891940827248	692
1	4212	459.905040226442	693
1	4215	460.185507863904	694
1	4222	461.676701446041	695
1	4225	462.214757166574	696
1	4235	463.007229603096	695
1	4246	463.728101119069	696
1	4253	463.769417967367	697
1	4254	464.220735914487	696
1	4259	464.260717282637	697
1	4262	464.285898041245	698
1	4270	464.350417292711	699
1	4273	464.350638035946	700
1	4279	465.291059373754	701
1	4282	465.389805981766	702
1	4287	466.271956056116	703
1	4292	466.928189400227	704
1	4298	467.114269174095	705
1	4301	467.376030883764	706
1	4304	467.43521908153	707
1	4307	467.645794690044	708
1	4310	468.292064309929	709
1	4320	470.400288445586	710
1	4323	470.526891826163	711
1	4324	470.791521478833	710
1	4329	471.067385218188	711
1	4336	472.398207355862	712
1	4345	472.698471435213	713
1	4352	472.804849625837	714
1	4355	473.391661426794	715
1	4358	475.369203365766	716
1	4366	475.814080664073	717
1	4377	478.146906981328	718
1	4388	479.234061099522	719
1	4391	479.591666708058	720
1	4394	480.027025141973	721
1	4401	480.82297241094	722
1	4404	481.205105614173	723
1	4407	481.226695694917	724
1	4417	481.680195506458	725
1	4427	482.414267642919	726
1	4434	483.049134029588	727
1	4435	483.114402735674	726
1	4440	483.462048905216	727
1	4443	483.944553089764	728
1	4449	484.442353821557	729
1	4464	485.522741699633	730
1	4467	485.628361622633	731
1	4470	485.747674763946	732
1	4478	486.667747228959	733
1	4479	486.811758009281	732
1	4484	487.646629324346	733
1	4490	487.92440231846	734
1	4493	488.254721956234	735
1	4503	488.894991718277	736
1	4506	489.823663363974	737
1	4509	489.878894448543	738
1	4512	490.139336796127	739
1	4515	490.322581760874	740
1	4521	491.58918083154	741
1	4524	492.048013785582	742
1	4530	493.735425616093	743
1	4533	494.534684093233	744
1	4543	495.525349134909	745
1	4546	495.742684566466	746
1	4549	495.944057358368	747
1	4550	495.97835035808	746
1	4572	497.476958751877	747
1	4581	498.657286275474	748
1	4584	499.168859732647	749
1	4587	500.265089054914	750
1	4592	500.777381701988	751
1	4595	501.997388400494	752
1	4598	502.239239018591	753
1	4601	502.510422128133	754
1	4604	502.747560487923	755
1	4615	503.046046333432	756
1	4626	503.586895338191	757
1	4629	503.590528106056	758
1	4632	504.224053129615	759
1	4635	504.22477034751	760
1	4638	504.239661603023	761
1	4644	504.664055404425	762
1	4660	506.02256752073	763
1	4663	506.496175255673	764
1	4666	506.59893875918	765
1	4669	506.723925724244	766
1	4672	507.314702298529	767
1	4675	507.426050156515	768
1	4682	508.401768512928	769
1	4685	509.144094337251	770
1	4688	510.764577505069	771
1	4691	511.316686891	772
1	4700	512.754764385682	773
1	4703	512.810240701221	774
1	4710	513.653527381973	775
1	4721	514.26444892172	776
1	4741	516.899718220784	777
1	4744	516.930376183164	778
1	4747	517.807282050415	779
1	4750	518.395130830176	780
1	4753	518.996462711899	781
1	4756	519.093076088113	782
1	4759	519.773095766452	783
1	4762	520.130247970931	784
1	4765	520.195996882274	785
1	4775	520.420933465807	786
1	4778	520.579278287636	787
1	4781	520.803701075479	788
1	4782	522.217475126577	787
1	4793	523.750964677951	788
1	4800	524.125674108338	789
1	4803	524.177310881438	790
1	4806	524.536776666771	791
1	4809	524.739843000737	792
1	4812	524.762427689411	793
1	4818	526.343791735762	794
1	4821	526.429481975608	795
1	4824	526.555441460882	796
1	4827	526.580954459599	797
1	4833	528.775927010703	798
1	4836	528.870008220965	799
1	4839	528.906884367596	800
1	4845	529.578632175364	801
1	4846	530.057589395527	800
1	4854	531.053066841676	801
1	4863	532.333746312383	802
1	4877	532.831812431413	803
1	4889	533.116560849394	804
1	4892	533.411017525808	805
1	4906	534.79946079679	806
1	4912	534.964665274576	807
1	4919	535.64304539457	808
1	4922	535.951756956456	809
1	4923	536.144370672585	808
1	4928	536.323092676191	809
1	4931	537.021909136094	810
1	4934	537.304805774064	811
1	4937	537.61044344879	812
1	4943	539.182452739562	813
1	4946	540.271287158304	814
1	4949	540.659250218906	815
1	4955	540.905314475837	816
1	4958	541.055918512919	817
1	4959	541.15124694025	816
1	4967	541.612491052751	817
1	4970	542.261896081529	818
1	4977	543.185109707011	819
1	4980	543.230596565224	820
1	4983	543.94867200622	821
1	4986	544.014625247455	822
1	4989	544.067628929177	823
1	4992	545.898914376786	824
1	4998	546.206742186439	825
1	5001	546.570857172001	826
1	5007	547.05083789507	827
1	5010	547.059781771204	828
1	5013	549.278958099472	829
1	5016	550.671258857326	830
1	5019	550.834927873624	831
1	5022	551.032053969957	832
1	5023	551.75692201758	831
1	5028	551.87007805197	832
1	5031	552.983380812274	833
1	5039	554.552382785786	834
1	5042	554.834720227923	835
1	5045	555.005842430895	836
1	5048	555.044338065784	837
1	5053	555.430991955763	838
1	5056	555.543156954806	839
1	5059	555.598381374168	840
1	5062	555.708907390567	841
1	5072	556.12662049558	842
1	5075	556.251981331961	843
1	5086	556.873831721953	844
1	5089	557.392890920045	845
1	5092	557.53282441505	846
1	5102	557.817534023347	847
1	5105	558.890075520142	848
[...]
12	134318	48464.241581365981	42354.911763196
12	134322	48466.237924917632	48270.331134103
12	134338	48477.105539459671	45784.130923675
12	134344	48482.137635832735	45992.303984109
12	134360	48485.751158228522	46548.029287083
12	134371	48492.72523789668	42861.812303958
12	134402	48516.109529170949	45797.462080846
12	134406	48516.836445254861	43407.222446857
12	134416	48518.722528670756	43241.320935225
12	134448	48549.153504784083	47103.989200342
12	134454	48554.319804321075	46812.724244291
12	134465	48558.304655176135	46707.813733098
12	134478	48569.899155784901	45702.254106994
12	134482	48573.811476237785	47146.212109907
12	134497	48581.106555019415	46769.852567987
12	134517	48592.420976448173	42331.818410689
12	134525	48593.543075748621	47327.085204452
12	134536	48600.638821386582	47051.542167856
12	134540	48602.993867537003	48062.722580379
12	134550	48604.714343085804	48285.987499097
12	134557	48610.92686334957	47274.31515685
12	134573	48620.988388200062	46794.277069073
12	134582	48624.411496769892	48264.254233584
12	134586	48628.519755811982	48431.905835973
12	134601	48633.687985887502	47081.723276225
12	134619	48643.595745465571	47629.846255172
12	134623	48650.290216430291	48282.192360867
12	134627	48650.685652087286	47946.091612784
12	134631	48654.213244667282	47887.247168872
12	134642	48656.951576938638	47875.950984381
12	134646	48669.457693032806	46156.61417016
12	134690	48694.763980300433	47555.831209925
12	134731	48714.418132761225	46942.163938689
12	134735	48714.615987455618	43998.083570275
12	134758	48735.456428107916	47047.36522958
12	134769	48737.776684887418	47278.54129928
12	134794	48752.609298819494	44197.331771246
12	134812	48759.350886378925	47455.338937263
12	134824	48768.345551870508	45360.379155391
12	134836	48777.713960958196	44144.479499756
12	134851	48785.22494324765	47531.798121337
12	134855	48785.542847444471	43776.366531438
12	134873	48791.506890909017	47011.439104307
12	134890	48799.794165819072	42417.113986068
12	134936	48828.900570315168	45916.227492282
12	134949	48836.34225857164	48603.708097219
12	134990	48858.165567345257	47117.463536656
12	135042	48876.02495148819	47290.469800638
12	135046	48876.63452045187	47202.727092225
12	135086	48893.230240662737	47464.333966755
12	135094	48893.834889109755	47213.148953213
12	135098	48895.099598155442	47497.71794349
12	135102	48897.385145282453	48394.874723154
12	135119	48903.637587902418	46380.39225249
12	135143	48917.383722961362	47918.815651931
12	135151	48922.382282435462	48541.220571797
12	135158	48924.564221694468	48489.514719986
12	135162	48925.284411760445	44409.769673057
12	135166	48925.495729328881	42978.566811338
12	135173	48936.673542221129	48285.404104418
12	135177	48945.781493752381	47668.606892179
12	135184	48948.115280849961	45677.598833614
12	135228	48978.411447091895	47416.683987083
12	135282	49008.80728414571	48343.093095999
12	135305	49017.947195626692	48058.098668128
12	135362	49044.060804475575	48286.853263668
12	135376	49051.040788437814	48657.236464625
12	135388	49054.730703478183	47649.272690015
12	135401	49063.941181426982	44293.490976776
12	135423	49069.729028415251	47251.330611255
12	135433	49078.614142921827	49017.116651878
12	135444	49081.410984641088	48525.812603267
12	135452	49084.719952245141	48094.210393813
12	135467	49096.923419593994	47846.621417663
12	135480	49104.277573188377	47437.899439537
12	135484	49104.705464199791	48315.968738393
12	135537	49133.7976190445	46519.128657156
12	135553	49147.796907501778	48451.451536392
12	135557	49149.423251076633	46763.321311695
12	135563	49161.511514925921	49023.102019843
12	135580	49170.355491324388	48296.642488066
12	135609	49191.181625925143	45838.10893809
12	135613	49192.338725149543	43380.195963838
12	135620	49197.025543953097	47869.250636044
12	135639	49202.218238003504	46333.328133853
12	135643	49203.907008895864	48722.701903282
12	135666	49215.516061584944	47489.750047876
12	135670	49218.002200305951	43323.342309922
12	135674	49219.802451044747	47414.805597655
12	135692	49239.279656008976	48019.289734812
12	135712	49251.204995336279	43184.387611196
12	135716	49252.68727831174	48757.392611222
12	135729	49267.431485081041	48001.374164072
12	135745	49274.742928192616	47382.246448141
12	135761	49288.247966335257	43498.19030904
12	135778	49295.928836812516	46287.665037566
12	135796	49312.16039960284	48466.487157986
12	135829	49328.813882644479	48293.288537136
12	135848	49336.178611914274	46951.672815929
12	135873	49344.236053018825	48976.179759575
12	135938	49377.892008522533	48472.157579687
12	135944	49379.485722129506	48583.356188946
12	135948	49380.322092791902	47767.943824367
12	135996	49412.845211112577	45360.40541095
12	136006	49418.106871098645	48159.876319867
12	136026	49423.535926009242	44901.224785479
12	136034	49424.868267559393	47556.933212768
12	136074	49431.873257019885	46174.591830371
12	136092	49441.056598013357	46589.892465236
12	136151	49465.865901717522	48826.772280567
12	136158	49473.159531979501	48751.050839291
12	136165	49477.939964606098	48080.951243281
12	136179	49483.430767016711	48708.81991982
12	136205	49494.764129780933	47853.872316768
12	136209	49494.796599018045	47997.488481071
12	136213	49496.275562231039	47889.655067662
12	136217	49497.329034875748	48762.297191995
12	136277	49534.399391021511	49095.889396992
12	136326	49561.136778375126	47829.040537011
12	136353	49582.553091511855	48553.059412969
12	136359	49586.292647832289	48252.640254369
12	136363	49590.662183937508	48390.033308428
12	136367	49590.867261301323	46843.737263981
12	136386	49606.811228094788	43922.986270907
12	136394	49608.909691497602	46874.795365518
12	136400	49612.949312911657	47916.262894217
12	136413	49615.084693709214	43573.255215276
12	136465	49645.273145709705	45455.485107626
12	136476	49660.678972181318	48651.273072007
12	136487	49670.460944833707	45309.600109542
12	136491	49671.512498750317	48776.224574541
12	136502	49681.76565664716	47795.2077926
12	136533	49703.16418881691	43317.469277341
12	136579	49727.021626438545	48190.261139832
12	136595	49742.346895639441	49523.755409121
12	136599	49757.099402311944	45704.750285593
12	136626	49764.006775294272	46583.655647595
12	136637	49769.863419262899	48650.288180995
12	136641	49769.948024956341	47394.952802874
12	136654	49778.068839549051	47865.236184354
12	136661	49780.370617711415	48023.278560474
12	136689	49791.556635892413	45563.491295087
12	136697	49793.203718890066	47069.612887703
12	136739	49816.500986341221	45240.26583167
12	136767	49836.280935002194	47896.465882315
12	136777	49838.316684154162	48833.594840859
12	136784	49840.412408167504	47959.663613421
12	136791	49844.062984264964	48175.800328618
12	136816	49853.555416154654	45195.381984626
12	136839	49861.616728805329	48649.77044382
12	136865	49871.551496963886	48188.053972144
12	136876	49874.820041816748	48929.846069496
12	136897	49893.78313509008	48967.290812386
12	136911	49900.720578900182	48614.146546532
12	136940	49921.676927046088	49520.129445652
12	136948	49922.856574326541	48944.761484568
12	136973	49943.760371126651	45883.035779209
12	136988	49961.941103129726	49417.926477882
12	137025	49979.765886911597	47557.450330858
12	137029	49979.86635830538	48588.930538178
12	137063	50010.24530208555	44176.453828106
12	137087	50032.230692811329	49996.129161423
12	137121	50043.859935010233	49097.792059564
12	137132	50052.621583205289	48452.12731918
12	137147	50056.241527135949	45784.849705961
12	137155	50057.110899596164	49010.203371899
12	137159	50066.701650846651	48345.833161968
12	137212	50094.397131356027	48368.394011782
12	137228	50109.208508266954	45841.738675532
12	137237	50111.518855199533	49212.352489359
12	137250	50122.976488072293	48660.860509113
12	137314	50162.511669698106	49406.078785926
12	137322	50164.481335356005	47037.721326686
12	137352	50179.893279391559	49034.328846908
12	137360	50183.662819727212	48522.096361787
12	137371	50184.84014926771	48916.626590123
12	137375	50185.286138571032	48726.11215183
12	137382	50193.846215547914	48590.21862147
12	137386	50195.368055830589	46974.90025354
12	137390	50195.583039889698	43849.306478691
12	137427	50209.920233131666	48632.165188796
12	137435	50211.432858182906	45727.633689224
12	137439	50213.483886751474	48343.993237416
12	137454	50218.018880922833	46210.432733558
12	137473	50227.937670916819	46248.033170687
12	137506	50249.944628400847	49461.9597505
12	137563	50285.673603517806	49317.039269513
12	137577	50292.447585181701	49567.674135124
12	137581	50294.363178187664	46631.558159916
12	137585	50295.215009662701	47340.146507897
12	137608	50300.765930565895	48690.339186292
12	137627	50315.80990294629	44439.709593396
12	137635	50320.821473375393	48713.486029614
12	137639	50323.802314377404	48391.442734143
12	137659	50334.714319174677	48468.783562914
12	137679	50346.798451570773	48724.217995534
12	137707	50360.53055093443	49786.991033559
12	137723	50368.288877374997	48713.6579429
12	137733	50371.475102377983	46925.965012543
12	137772	50398.155492052757	49969.098450017
12	137776	50402.797742135907	47990.524370377
12	137780	50406.683455723522	49031.868194086
12	137801	50414.902158617741	50255.871169283
12	137819	50425.177826912549	50155.838997754
12	137823	50426.015046351897	47912.853643054
12	137857	50447.721608433367	49761.653122568
12	137868	50450.963377851548	46583.261147839
12	137882	50459.899738616847	47921.925749824
12	137917	50478.578599519604	46302.077622227
12	137930	50485.761560588674	45109.276127032
12	137934	50487.369152283785	49702.843758053
12	137957	50505.656975974271	48167.769107945
12	137961	50508.865603435332	49108.895733316
12	137988	50540.93719877267	48924.332992267
12	138030	50578.395463522742	49468.987131309
12	138044	50597.855084645606	48904.56839068
12	138084	50626.179903426921	47356.380959371
12	138092	50627.794133564284	48163.856691136
12	138105	50632.729132556151	49345.647469812
12	138111	50641.104401517367	47276.670578506
12	138120	50644.888284315014	45094.648371525
12	138124	50646.309883595575	48802.100473438
12	138132	50647.941872909197	49505.206262865
12	138183	50673.231210855577	46806.069080048
12	138191	50676.38743422385	49030.940575936
12	138202	50681.605493347206	49979.676518218
12	138206	50684.945052339554	49462.535778628
12	138213	50688.474361021457	50662.369339703
12	138236	50700.281129376524	49240.495077025
12	138240	50700.483453319084	49202.522134668
12	138321	50729.392094982934	48520.238610168
12	138332	50737.368279821631	47387.375985236
12	138355	50747.866142966164	47693.371771627
12	138384	50757.546860017353	50275.132592374
12	138397	50766.906032987831	48850.383060124
12	138463	50802.824719093274	49388.75396607
12	138471	50804.605326874766	48610.691512615
12	138475	50806.590974844608	50143.333384976
12	138497	50822.818996526536	49267.423442805
12	138518	50833.348958243319	46538.698989457
12	138524	50841.227822881173	49558.162147257
12	138542	50851.852687929904	49250.608241729
12	138572	50883.146045653504	49596.621438893
12	138576	50884.889972857832	49823.342520324
12	138608	50898.165387977907	50292.72424262
12	138616	50899.75219125044	49890.781756309
12	138620	50899.786831423844	44889.295576161
12	138633	50909.080388175715	50326.938332536
12	138647	50915.079739869653	50765.338601149
12	138651	50917.246446529479	50374.984550448
12	138655	50917.780292058617	49259.551796622
12	138685	50944.896763770952	48178.581170188
12	138691	50947.685121547233	50237.838767687
12	138734	50966.126403471391	49143.991866139
12	138750	50973.11717986351	49227.425369633
12	138784	50989.594185158584	49037.56808488
12	138818	51001.377389505824	50522.143328406
12	138822	51001.727917485202	47684.90071044
12	138834	51008.437745943145	49680.576576423
12	138838	51009.967209355484	46050.192037924
12	138848	51013.073251291941	49232.221891268
12	138860	51021.906620850144	47990.593029266
12	138868	51024.271410482965	50218.816559756
12	138884	51031.403191647462	47250.339366894
12	138893	51034.313824419432	49634.025779538
12	138907	51036.423756993147	49401.89791088
12	138911	51040.342624727599	45587.831922671
12	138915	51045.411394163496	49649.178173356
12	138926	51050.185447688976	48268.921074143
12	138939	51059.10617284589	49508.020844899
12	138955	51062.725160179441	45543.175555535
12	138963	51064.480954890935	47925.043532561
12	138996	51084.61331871207	50500.949901272
12	139000	51084.738075596567	49704.265218216
12	139029	51100.887842762155	49354.562646385
12	139063	51146.976789878021	50190.916256128
12	139079	51159.472752951304	49328.802396992
12	139083	51160.122040944953	49623.246355987
12	139087	51161.15753896715	46675.887327604
12	139112	51182.201504099567	50433.867699297
12	139123	51184.276914475872	51084.379258533
12	139140	51193.684761303003	49449.851268924
12	139149	51197.57028121481	50079.16525157
12	139182	51227.249225715701	49608.296457634
12	139228	51259.595918511252	50778.7729461
12	139256	51269.305858242231	48661.204188013
12	139260	51271.232279217029	46408.113240841
12	139279	51286.216555254988	49413.222795452
12	139283	51296.328330491978	50588.049481899
12	139368	51386.680698501835	45319.453504614
12	139382	51396.163538402769	51172.630490675
12	139401	51402.755297738107	45234.682608328
12	139423	51411.513529090992	51012.067268187
12	139449	51418.283978046514	50982.783139071
12	139462	51421.283526426782	50785.606969414
12	139466	51422.191355317893	49650.516204275
12	139478	51428.472528229914	50908.342280259
12	139514	51447.896351582033	50603.560986076
12	139532	51455.466553282932	51356.534137096
12	139546	51460.501165709526	50194.152952799
12	139572	51474.94521541673	51061.993200463
12	139629	51512.123280253918	51413.591198639
12	139640	51521.590228827513	49499.59887812
12	139656	51534.28108336728	51166.350496812
12	139662	51544.768714457571	49746.640097245
12	139671	51556.894447975773	50060.254114746
12	139675	51558.271585208369	50848.904996038
12	139701	51569.357251521674	47042.322500596
12	139709	51576.530568440113	50393.511282831
12	139720	51593.415488865121	50189.239733851
12	139724	51595.656938657406	50196.924044066
12	139741	51605.21321968647	45647.954485809
12	139764	51620.683054691976	50393.368053373
12	139768	51622.179254674922	48897.61004376
12	139864	51670.183579703428	46949.721903233
12	139924	51690.359250828596	46979.404878074
12	139948	51696.963496403722	51164.131683972
12	139956	51702.736842769364	51335.70578914
12	139967	51710.041208217267	50925.267369182
12	139971	51716.510494365982	50387.430584097
12	139975	51718.173953021792	48320.737917198
12	139988	51723.123599016466	51370.916590033
12	140017	51730.077566441462	45527.771660483
12	140031	51738.035303345221	50062.328477039
12	140055	51761.321042233608	50783.064122821
12	140073	51766.694830546741	50673.644228602
12	140083	51774.030959951773	48888.52147539
12	140103	51779.33043570859	47763.726415973
12	140162	51795.824719265182	50298.869328723
12	140202	51812.893801850449	51100.810687782
12	140227	51827.611646327353	51303.074869661
12	140243	51833.473408288358	50975.4562467
12	140275	51855.204731251715	50706.762482208
12	140281	51859.281817370514	49263.622486046
12	140292	51868.030945226218	51136.453513032
12	140305	51873.878368641527	51484.511476159
12	140330	51877.607131525015	50073.276430359
12	140377	51904.591245823999	50380.226854907
12	140430	51936.704877859425	51410.361086124
12	140434	51938.130032580564	51268.743329742
12	140438	51939.292764120286	46587.897008159
12	140455	51949.100345186773	50489.955273879
12	140531	51986.829959355442	46041.08032725
12	140535	51987.826089246645	51124.088796439
12	140547	51993.062869979218	50185.613346322
12	140553	51993.414288798281	51562.469078729
12	140557	51993.556680720614	49325.100902053
12	140584	52009.460039465735	46445.639836801
12	140610	52022.342249967124	51673.454682313
12	140618	52022.810023496283	50766.546610677
12	140622	52025.235465361662	49140.338682347
12	140637	52029.801245376555	48507.457725648
12	140651	52035.660318772251	50176.170179662
12	140655	52035.891631292381	50446.217550515
12	140715	52080.682323570145	50587.333137633
12	140723	52082.437881426265	51303.981655842
12	140742	52091.188640444991	50548.520836812
12	140763	52097.108633875049	51220.301121087
12	140774	52100.800663348722	49664.950694092
12	140778	52104.191624861954	51585.19516215
12	140788	52113.021653364408	51943.150539702
12	140795	52115.179356603936	51182.743092548
12	140834	52131.312800334909	47906.263515966
12	140844	52137.902791489567	51413.004292878
12	140852	52142.318671257949	50638.454835204
12	140864	52149.226884217857	50621.090906517
12	140875	52160.207965954733	49020.258720311
12	140931	52184.709373653192	51104.204138322
12	140947	52193.851507031932	47188.579401806
12	140967	52198.36427116926	49811.585312886
12	140990	52207.805497420841	50348.785791598
12	141002	52211.897250064107	51402.368230609
12	141053	52242.214983900722	52062.944180152
12	141057	52242.639930702612	50931.145302738
12	141086	52257.856620108391	46847.147508496
12	141104	52261.892936133508	51290.232633068
12	141116	52266.437080048153	50371.427533551
12	141179	52300.549204632814	50800.344129862
12	141183	52302.001814699218	50484.244583793
12	141221	52318.594585445775	50255.549901722
12	141225	52322.899368429165	50786.69311003
12	141277	52351.229092548108	48064.688462261
12	141338	52368.839895046736	49875.668400518
12	141365	52384.710992740278	49107.270696165
12	141418	52428.444508430887	51671.136642607
12	141454	52457.420557593387	47027.403092004
12	141489	52473.196632255463	50581.451529984
12	141496	52477.672929470572	51987.289485094
12	141510	52482.359382147412	51111.319488958
12	141519	52487.1436075289	51556.198652859
12	141537	52493.178726246876	48629.861541859
12	141546	52494.527006290838	51422.452956197
12	141598	52521.035144369592	52015.012576849
12	141609	52527.275042374984	46422.877536927
12	141631	52537.166929962896	50540.884478004
12	141635	52537.294033215212	50833.717324834
12	141669	52555.378846810178	52101.422458201
12	141697	52564.125357427432	47397.12887063
12	141711	52566.323043630403	50828.569724266
12	141726	52580.195375856244	46357.189638402
12	141730	52582.147448215311	49372.793335495
12	141742	52590.202016400071	46610.747645446
12	141755	52594.605144543174	49238.199979522
12	141766	52607.53041991689	52216.216346203
12	141780	52613.777901632643	47227.719449559
12	141822	52646.381221877562	51115.645384691
12	141826	52648.256876932319	51783.85942119
12	141839	52655.805634132721	47032.845025849
12	141858	52666.70983555368	51130.725749447
12	141879	52676.349675011764	52419.249968341
12	141895	52685.650938844112	51784.2017738
12	141924	52702.6430325621	50891.41846906
12	141943	52715.523578350661	51615.574733326
12	141947	52717.88239116984	52392.27037027
12	141959	52722.009532905669	50796.644913007
12	141973	52743.033354866416	51108.290527434
12	141980	52745.922520368063	46525.114691938
12	142007	52753.392883186513	51388.59588275
12	142025	52763.526329058788	51522.854391475
12	142051	52769.19181045063	51867.513507221
12	142069	52779.887319729075	51723.628424822
12	142079	52780.834466664732	51899.067865527
12	142106	52806.60855510198	52191.634481851
12	142125	52817.814379498987	52184.748888395
12	142135	52827.126089689459	48748.755175773
12	142159	52837.370376669438	51362.835097087
12	142177	52842.987292496247	51382.64328772
12	142198	52853.688619820438	51679.732960468
12	142202	52856.194510012425	46919.111235586
12	142230	52869.008312209566	52163.29023257
12	142241	52874.927305357168	51073.548917965
12	142268	52885.056324029571	51004.484241418
12	142279	52891.199460694718	52838.978718807
12	142290	52902.484192588274	52162.595842833
12	142294	52903.259095637743	50870.484844879
12	142311	52908.487091432116	51060.022094298
12	142348	52938.788339322176	51434.824497013
12	142376	52955.011810297574	50205.753669105
12	142382	52961.780539358077	46477.395447339
12	142391	52965.303483924495	49116.325751221
12	142446	53004.974487192887	51774.628160841
12	142455	53010.641847942437	51279.37378193
12	142466	53013.391059828861	50642.174910277
12	142490	53017.906078930853	52032.704398502
12	142538	53064.922211399778	52232.952659714
12	142548	53100.52885646027	51762.671711187

