version 2
run General-0-20181210-14:42:01-26152
attr configname General
attr datetime 20181210-14:42:01
attr experiment General
attr inifile omnetpp.ini
attr iterationvars ""
attr iterationvarsf ""
attr measurement ""
attr network ER_Optimize_One
attr processid 26152
attr repetition 0
attr replication #0
attr resultdir results
attr runnumber 0
attr seedset 0
param **.source_waiting_room.interArrivalTime exponential(1.0s)
param **.source_ambulance.interArrivalTime exponential(1.0s)
param **.nurse.serviceTime exponential(8s)
param **.nurse1.serviceTime exponential(8.1s)
param **.nurse2.serviceTime exponential(8.2s)
param **.doc.serviceTime exponential(6.9s)
param **.doc1.serviceTime exponential(7.3s)
param **.Xray.serviceTime exponential(6.8s)
param **.MRI.serviceTime exponential(7.5s)
param **.Surgery.serviceTime exponential(9.1s)
param **.source_waiting_room.numJobs 6600
param **.source_ambulance.numJobs 3400
param **.level_5_queue.capacity 2000
param **.level_3_4_queue.capacity 3000
param **.level_1_2_queue.capacity 2000
param **.triage_nurse_ambulance.randomGateIndex bernoulli(0.18)
param **.triage_nurse_waiting_room.randomGateIndex bernoulli(0.14)

vector 0 ER_Optimize_One.level_5_queue queueLength:vector ETV
attr interpolationmode sample-hold
attr title "queue length, vector"
vector 1 ER_Optimize_One.level_3_4_queue queueLength:vector ETV
attr interpolationmode sample-hold
attr title "queue length, vector"
vector 2 ER_Optimize_One.level_1_2_queue queueLength:vector ETV
attr interpolationmode sample-hold
attr title "queue length, vector"
vector 3 ER_Optimize_One.waiting_for_doc queueLength:vector ETV
attr interpolationmode sample-hold
attr title "queue length, vector"
vector 4 ER_Optimize_One.waiting_for_doc1 queueLength:vector ETV
attr interpolationmode sample-hold
attr title "queue length, vector"
vector 5 ER_Optimize_One.waiting_for_doc2 queueLength:vector ETV
attr interpolationmode sample-hold
attr title "queue length, vector"
vector 6 ER_Optimize_One.wait_for_work queueLength:vector ETV
attr interpolationmode sample-hold
attr title "queue length, vector"
vector 7 ER_Optimize_One.wait_for_work1 queueLength:vector ETV
attr interpolationmode sample-hold
attr title "queue length, vector"
vector 8 ER_Optimize_One.wait_for_result queueLength:vector ETV
attr interpolationmode sample-hold
attr title "queue length, vector"
vector 9 ER_Optimize_One.wait_for_result1 queueLength:vector ETV
attr interpolationmode sample-hold
attr title "queue length, vector"
vector 10 ER_Optimize_One.wait_for_result2 queueLength:vector ETV
attr interpolationmode sample-hold
attr title "queue length, vector"
vector 11 ER_Optimize_One.wait_for_work2 queueLength:vector ETV
attr interpolationmode sample-hold
attr title "queue length, vector"
vector 12 ER_Optimize_One.sink lifeTime:vector ETV
attr interpolationmode none
attr title "lifetime of arrived jobs, vector"
attr unit s
0	0	0	0
0	278	32.116942445659	1
0	284	32.974838086733	2
0	288	34.298146041861	1
0	305	35.428791750347	0
0	843	96.515473307548	1
0	850	97.912021064201	0
0	1037	120.541312929264	1
0	1041	121.082760415925	0
0	1067	124.758443710046	1
0	1097	127.935626243505	2
0	1159	134.386486661319	1
0	1236	142.684447414141	0
0	1267	144.359106134518	1
0	1320	153.643240871819	2
0	1342	156.282884027628	1
0	1347	156.837002744501	2
0	1381	159.742922348157	3
0	1406	163.798899914533	2
0	1444	168.007146280614	1
0	1515	176.776686768689	0
0	1523	177.324752631195	1
0	1544	180.323361936699	0
0	1624	187.218986196741	1
0	1654	191.375034575484	0
0	1659	191.677462541232	1
0	1691	195.029555456998	2
0	1747	202.638571147973	3
0	1759	203.61133001806	4
0	1907	219.447542983514	3
0	1922	220.347782554543	2
0	1934	221.74706463531	1
0	2085	240.823987381156	0
0	2207	252.167518836301	1
0	2211	252.394447958401	0
0	2219	253.386223519863	1
0	2222	253.896736095799	2
0	2247	257.298186107855	1
0	2304	263.024157346469	2
0	2338	270.081040317303	3
0	2341	270.448308484801	4
0	2387	273.498096454367	5
0	2403	276.924632839881	4
0	2429	280.912763495191	3
0	2455	283.253269365265	4
0	2471	284.54469506919	3
0	2479	285.223666357509	2
0	2552	295.396546376064	1
0	2600	300.372399803844	2
0	2647	305.928976087752	3
0	2662	308.625510941672	4
0	2706	315.222838259458	5
0	2757	319.432049619455	6
0	2769	320.731248951888	7
0	2785	322.482473599303	6
0	2788	322.744918037091	5
0	2796	323.740329201352	6
0	2818	327.0766979864	5
0	2899	336.787582490905	4
0	2929	339.832309685404	3
0	2958	343.605075449007	2
0	2992	348.262523874102	1
0	3036	352.417672990528	2
0	3071	357.82194894108	1
0	3125	363.130122420553	0
0	3142	365.486142721458	1
0	3229	375.927325246547	2
0	3277	383.824475507977	3
0	3379	398.104511505119	4
0	3388	398.714611807323	5
0	3412	401.650429407599	6
0	3416	402.826384379721	5
0	3524	413.880165299314	6
0	3549	416.667278976359	7
0	3565	417.91557499489	6
0	3568	417.92089048468	5
0	3622	424.278655108995	6
0	3692	436.371930718949	7
0	3693	437.190912410259	6
0	3746	443.014867833036	7
0	3759	444.007004229574	6
0	3783	446.584367164143	5
0	3807	449.221955323621	4
0	3834	451.222149608166	3
0	3840	451.42122226127	2
0	3858	452.810277251581	1
0	3888	456.344211372182	2
0	3891	456.453555885719	3
0	3982	468.609515051568	4
0	4035	475.098937032962	5
0	4095	484.527618550734	6
0	4107	485.982243783052	7
0	4136	488.033592378952	6
0	4190	496.024854538233	5
0	4193	496.303622911194	4
0	4207	497.316449955807	3
0	4329	515.470389663416	4
0	4346	517.164436163842	3
0	4361	519.952573056205	2
0	4413	525.999534639426	3
0	4433	528.486604949244	4
0	4436	529.543636853396	5
0	4485	536.023539599243	6
0	4532	541.651669830148	7
0	4542	542.115750154735	8
0	4543	542.180059389152	7
0	4605	553.750068764516	8
0	4609	553.84100977522	7
0	4696	564.337133841934	8
0	4743	568.611490580518	9
0	4770	570.369702005102	8
0	4780	571.478004177828	9
0	4858	580.317359042984	8
0	4869	580.844984972865	7
0	4952	588.599117154683	8
0	5028	599.399646731519	9
0	5053	603.774141291801	10
0	5057	604.710656700006	9
0	5068	606.171736562281	10
0	5083	608.973674267719	9
0	5089	609.738015716921	8
0	5184	620.56408402964	7
0	5265	629.40580688781	8
0	5300	632.365801326519	9
0	5307	632.639051667111	10
0	5333	635.897731295212	11
0	5339	637.148508414109	12
0	5399	646.409024909134	13
0	5434	653.402125892188	14
0	5447	655.636303869153	15
0	5489	660.708797576044	16
0	5516	664.220959586376	17
0	5565	670.277583541409	18
0	5578	671.843619167258	17
0	5603	673.866962645848	18
0	5612	674.476551723597	19
0	5613	674.487820556842	18
0	5661	678.815772837065	19
0	5721	682.413481227246	20
0	5798	689.257646831902	21
0	5802	689.809495262533	20
0	5807	689.938032854968	21
0	5910	703.458062194851	20
0	5940	705.829880334601	19
0	5970	708.923984028525	18
0	6012	713.955971769203	19
0	6075	723.130726774807	20
0	6076	725.832443182473	19
0	6100	728.5121010972	20
0	6131	730.847298091579	19
0	6143	732.183089991916	20
0	6218	742.006857673615	21
0	6315	751.166597640617	20
0	6320	751.372160290364	21
0	6327	751.665576279145	22
0	6359	754.233688646894	21
0	6431	763.942419500272	22
0	6435	764.385446929225	21
0	6444	764.870318032426	20
0	6449	765.175902199104	19
0	6455	765.25023035631	18
0	6476	767.612076025235	19
0	6479	768.620794332653	20
0	6525	772.869660089163	21
0	6555	776.536960233373	22
0	6574	778.301499397869	23
0	6661	786.271555085538	22
0	6684	789.443595634765	23
0	6685	789.622710114642	22
0	6690	789.640483299819	23
0	6786	796.778179449801	24
0	6848	804.192652709061	23
0	6880	808.294996289479	24
0	6901	810.759087967369	25
0	6922	811.812444861929	26
0	6940	814.100237487508	27
0	6959	816.288175734115	28
0	6972	817.742520313034	27
0	7009	823.104882103277	26
0	7092	830.209272062092	25
0	7145	836.350220549992	24
0	7168	839.764212955896	25
0	7195	842.00445386712	24
0	7219	845.122447930832	23
0	7232	846.410506282835	22
0	7263	849.395838042463	21
0	7332	857.366012919816	20
0	7402	865.361308057746	19
0	7411	865.923450245806	18
0	7459	871.165644574353	19
0	7469	871.931049266964	18
0	7564	884.225914063844	19
0	7758	906.734099481804	20
0	7784	910.435919701746	21
0	7826	914.724644352489	22
0	7880	920.141533847627	23
0	7929	929.058626364901	22
0	7946	930.455427749121	23
0	8093	946.079843089741	24
0	8176	956.475331136675	25
0	8279	973.433751941319	24
0	8293	975.03743929688	25
0	8302	975.471323825477	26
0	8311	976.464656406158	27
0	8355	981.24955605096	28
0	8559	1005.16821470971	27
0	8605	1009.27539656474	28
0	8608	1009.58219930329	29
0	8642	1012.682076660336	30
0	8690	1020.531287116998	29
0	8720	1022.907127816916	28
0	8777	1029.169519107456	29
0	8786	1029.753696258582	30
0	8806	1032.947359275678	29
0	8854	1038.379051861404	30
0	8977	1052.611815220774	29
0	8989	1056.076506544261	28
0	9009	1058.105891383926	29
0	9065	1065.5392015916	28
0	9106	1072.501106776954	29
0	9148	1076.2667854629	28
0	9186	1081.864904024867	29
0	9199	1082.555800402823	30
0	9229	1086.492408847892	31
0	9250	1090.169719693876	30
0	9258	1090.554259578419	31
0	9298	1093.935714739829	32
0	9304	1094.434360078652	33
0	9313	1095.478675307743	34
0	9325	1096.953346780138	35
0	9347	1099.612289621181	36
0	9382	1103.931267844505	37
0	9415	1108.522177655989	38
0	9446	1114.807794493642	39
0	9453	1116.237788732133	38
0	9531	1124.701398519511	39
0	9562	1129.988301564799	40
0	9642	1137.443435876655	41
0	9669	1139.661444335004	42
0	9684	1141.55524815416	43
0	9702	1143.387004350914	42
0	9724	1147.13266598506	43
0	9747	1150.935592416076	42
0	9780	1153.147121864215	43
0	9789	1154.617275962768	42
0	9800	1155.711021662279	41
0	9940	1172.647044272194	42
0	9953	1175.564987257219	43
0	9969	1176.073122034979	42
0	9995	1178.136106675917	43
0	10056	1184.01503475891	42
0	10079	1186.761646799805	41
0	10119	1189.439562066591	42
0	10129	1190.13422791071	43
0	10142	1192.368876898388	42
0	10172	1193.625752829792	43
0	10219	1197.593904128872	42
0	10275	1206.56484887209	41
0	10298	1207.96086555694	42
0	10314	1209.610065934626	41
0	10352	1214.224866099503	42
0	10400	1217.868651337872	43
0	10455	1222.274974751677	44
0	10467	1223.614940660675	43
0	10528	1229.947848470593	44
0	10531	1229.958699134606	45
0	10560	1232.64887689956	46
0	10574	1234.956701488238	45
0	10589	1237.114096961137	44
0	10685	1246.901528356075	43
0	10691	1247.667748087272	42
0	10751	1253.785462547853	41
0	10762	1255.230556500019	42
0	10789	1257.736159909606	43
0	10801	1258.976792660064	44
0	10877	1271.079589338833	43
0	10886	1272.829555512254	42
0	10970	1281.809233934751	43
0	10995	1283.836562982451	42
0	11098	1295.049882861845	41
0	11103	1295.927740379925	42
0	11138	1299.693145871984	41
0	11193	1306.294240138388	40
0	11268	1312.7764320861	41
0	11296	1315.526226978356	42
0	11300	1316.493740381836	41
0	11361	1323.209523759303	42
0	11446	1335.596927381934	43
0	11458	1336.171679463617	44
0	11463	1336.979561543434	45
0	11663	1358.451300502677	46
0	11672	1360.151495642119	47
0	11691	1362.787855962105	48
0	11761	1374.473329058542	49
0	11828	1381.364336595437	50
0	11896	1386.777256413556	51
0	11911	1388.406108378754	52
0	11976	1393.161909573756	51
0	11989	1395.464444707547	50
0	12069	1403.138471560267	49
0	12104	1407.343706118719	48
0	12135	1409.87396147003	49
0	12144	1410.348167665862	50
0	12175	1412.462445089589	49
0	12198	1413.914854672288	50
0	12219	1414.578215510142	51
0	12234	1416.693326653869	52
0	12332	1426.052392587454	51
0	12373	1430.975605182465	52
0	12382	1431.98997221824	53
0	12385	1432.481796346315	54
0	12407	1434.773886646332	55
0	12445	1438.123027001075	54
0	12513	1444.435557242992	55
0	12525	1444.8666812989	56
0	12560	1447.443964308136	55
0	12602	1452.453313764962	56
0	12608	1453.357242775584	57
0	12611	1453.723390166768	58
0	12644	1456.552333961089	57
0	12770	1474.152846563348	58
0	12833	1485.867519121768	59
0	12853	1487.551452190503	58
0	12886	1491.529999815976	57
0	12898	1492.878372453988	56
0	12932	1496.835289561186	57
0	13062	1510.155263369038	58
0	13068	1510.803133972605	59
0	13152	1516.302305493971	58
0	13182	1519.896835396649	59
0	13195	1522.646319337244	60
0	13198	1522.757556483198	61
0	13227	1525.656770707292	62
0	13251	1527.880228619541	61
0	13287	1530.377861878737	60
0	13310	1532.892379882854	61
0	13320	1533.668670909753	62
0	13358	1540.030996677225	63
0	13365	1540.751333033553	62
0	13451	1549.062348075296	63
0	13468	1550.299156871316	64
0	13523	1558.274437033524	63
0	13557	1561.547713524832	64
0	13569	1563.156784834812	63
0	13636	1568.793583154071	62
0	13685	1576.705880406834	63
0	13707	1580.071083928052	64
0	13741	1583.532695704862	63
0	13752	1585.729202985793	64
0	13775	1588.841575029703	65
0	13789	1590.120196677536	66
0	13814	1593.051409880533	67
0	13950	1605.243463137491	68
0	13957	1605.73734149605	67
0	14029	1611.483588435278	68
0	14039	1612.816600017434	67
0	14177	1627.620513318345	68
0	14181	1628.437307527671	67
0	14211	1631.571842091405	68
0	14271	1636.539162836819	67
0	14291	1638.914452772753	66
0	14294	1639.265477209088	65
0	14319	1642.085313227709	64
0	14387	1650.171652354449	63
0	14401	1650.559347301123	64
0	14413	1652.184473022081	65
0	14445	1655.444245180898	64
0	14451	1656.603410475634	63
0	14459	1657.841427222189	64
0	14472	1659.250536123721	65
0	14486	1660.707647908315	64
0	14511	1665.047005109064	65
0	14517	1665.388718150678	66
0	14518	1665.765265221195	65
0	14581	1672.15571817961	66
0	14596	1673.991793266033	65
0	14607	1676.105172015803	66
0	14657	1681.275452264825	67
0	14679	1683.759232298735	68
0	14685	1683.813749060272	69
0	14689	1684.44713537813	68
0	14704	1686.846462039869	67
0	14717	1688.254906821444	68
0	14740	1690.578392337825	69
0	14806	1696.858722747146	68
0	14890	1703.128844225787	67
0	14903	1705.286709856746	68
0	14907	1706.285533453175	67
0	14922	1708.209593853281	66
0	14930	1708.278970369659	67
0	14934	1708.721250731597	66
0	14953	1711.315417347748	65
0	15076	1726.8021177252	66
0	15129	1732.582661031245	65
0	15137	1733.685320430472	66
0	15165	1737.222113766968	65
0	15184	1739.507905405222	64
0	15189	1739.797537073111	65
0	15223	1742.750986185547	66
0	15300	1750.093152171973	65
0	15325	1753.221059034364	64
0	15348	1755.079805515701	63
0	15425	1764.099275622517	64
0	15446	1766.398224247679	63
0	15488	1771.459201131626	64
0	15502	1772.696173471766	65
0	15512	1773.488515687653	64
0	15566	1780.148975594572	65
0	15600	1783.256344368055	64
0	15632	1787.594372947357	65
0	15639	1789.017323903525	64
0	15674	1794.498854424023	63
0	15688	1795.931167800347	62
0	15721	1799.285426978322	63
0	15735	1800.111205547391	64
0	15756	1801.944830468499	63
0	15785	1804.090225393349	64
0	15841	1810.408881585128	65
0	15909	1817.813359432409	66
0	15967	1824.792674670457	65
0	15998	1827.578950429648	64
0	16023	1829.228041010998	65
0	16029	1829.585251831892	66
0	16032	1829.91285779916	67
0	16041	1830.43676095894	68
0	16044	1830.523107271425	69
0	16075	1834.805748320753	68
0	16133	1840.405675884266	69
0	16134	1840.509529420949	68
0	16193	1845.512601889264	67
0	16208	1846.631271613253	68
0	16302	1858.707255265716	67
0	16337	1863.744539111076	68
0	16357	1866.83706781143	67
0	16470	1880.640149378476	66
0	16506	1882.821917771588	65
0	16587	1893.490918647068	64
0	16590	1893.502384108717	63
0	16620	1898.064385869621	64
0	16733	1912.78823322165	65
0	16739	1913.254354933824	66
0	16882	1930.666836622899	67
0	16889	1931.013696493479	68
0	16898	1932.494562939145	69
0	16899	1932.519875019302	68
0	16916	1934.364974753604	69
0	17054	1951.566255752409	68
0	17107	1958.47324592204	69
0	17118	1959.266248865814	68
0	17184	1965.959168428571	67
0	17206	1966.454451335886	66
0	17229	1970.289653495218	67
0	17329	1982.304208229288	68
0	17333	1982.950237327732	67
0	17357	1985.307670007826	66
0	17413	1994.402728657211	65
0	17416	1994.472121464171	64
0	17519	2004.596798769682	63
0	17565	2010.32012482212	64
0	17583	2012.129689284815	63
0	17606	2013.103767733867	64
0	17638	2015.974992071542	63
0	17687	2021.176014493831	62
0	17758	2031.88361610068	63
0	17776	2035.155913936101	64
0	17831	2043.593131575358	65
0	17875	2051.053920096594	64
0	17889	2053.396566651185	65
0	17907	2056.016600963784	66
0	17919	2056.559719422721	67
0	17940	2059.875749932324	68
0	17992	2065.956960984584	67
0	18046	2072.993818548812	66
0	18069	2074.434154839286	65
0	18074	2075.442181319886	66
0	18077	2075.534914622974	67
0	18101	2078.199167464523	66
0	18125	2080.846828870865	67
0	18168	2085.188253337271	66
0	18201	2092.782572105425	67
0	18210	2094.316227043685	68
0	18280	2102.356997516482	69
0	18283	2102.864585087263	70
0	18346	2111.993380146775	69
0	18363	2114.277858924659	68
0	18410	2120.795859726992	67
0	18433	2122.537168123633	68
0	18496	2128.281280124739	69
0	18669	2147.122184055891	68
0	18680	2147.837606835351	69
0	18697	2149.620167664163	70
0	18775	2158.571334962126	71
0	18791	2160.603215049505	72
0	18809	2163.499387674445	73
0	18818	2165.435725757436	74
0	18824	2166.529504098542	75
0	18853	2172.657508419137	74
0	18868	2174.451442179178	73
0	18891	2176.186607537316	74
0	18908	2178.914589262546	75
0	18922	2181.741738518897	76
0	19013	2194.050028991835	77
0	19049	2195.878694914008	78
0	19057	2196.939270130798	79
0	19119	2201.86935077051	78
0	19161	2206.537658970256	77
0	19166	2206.865800850396	78
0	19169	2206.949474056254	79
0	19176	2207.058105662971	80
0	19221	2210.389861629037	81
0	19227	2210.555895807966	82
0	19230	2211.500331410228	83
0	19248	2215.233988466059	82
0	19265	2218.065237757798	83
0	19271	2219.852186781869	84
0	19274	2219.996576220602	85
0	19293	2222.90221744475	84
0	19296	2223.922303952946	83
0	19301	2225.199504689049	84
0	19340	2230.773725699363	83
0	19345	2230.832480260969	84
0	19355	2231.964155495514	83
0	19364	2233.388312616574	82
0	19551	2253.513296447165	83
0	19580	2256.293762443972	84
0	19599	2259.497661014182	83
0	19693	2268.247746511843	82
0	19722	2270.963992813044	83
0	19827	2282.073265272943	84
0	19970	2297.155394884194	85
0	19973	2297.173518989811	86
0	19992	2299.255383737352	85
0	20056	2308.012836648625	86
0	20071	2309.526202023298	87
0	20111	2312.907088956038	88
0	20114	2312.942291485906	89
0	20135	2315.62266762167	88
0	20165	2320.478289884508	89
0	20249	2335.442189979329	88
0	20280	2338.322247023539	89
0	20325	2341.166936226944	88
0	20330	2341.895524707206	89
0	20363	2344.44146874542	90
0	20383	2345.676051406943	91
0	20394	2347.872193117985	90
0	20444	2353.82841732476	89
0	20464	2354.898373857489	90
0	20668	2378.212247624412	89
0	20745	2388.670740519956	90
0	20760	2390.495016418281	91
0	20767	2391.084904509462	90
0	20774	2391.329509021517	91
0	20801	2394.061354028195	92
0	20824	2396.065247143872	93
0	20845	2397.401007744551	94
0	20852	2398.711447098798	93
0	20875	2400.946269867232	92
0	20894	2404.576274448951	93
0	20904	2405.900625392485	92
0	21026	2419.236973699418	91
0	21056	2423.929373896145	92
0	21066	2425.161462590769	91
0	21089	2426.407154557702	92
0	21090	2426.862580088324	91
0	21172	2434.8054967706	90
0	21304	2448.958437185724	89
0	21317	2449.570864688463	90
0	21341	2451.223932176317	91
0	21421	2459.129485493045	90
0	21452	2462.892475136226	91
0	21484	2466.212839608673	90
0	21489	2466.282001303699	91
0	21521	2468.904683168722	90
0	21534	2470.210914069559	91
0	21559	2473.206475385273	90
0	21579	2474.709316421311	91
0	21598	2476.506320117207	92
0	21680	2486.360762120829	91
0	21718	2490.470437679932	92
0	21759	2496.328499239966	91
0	21775	2497.729432960461	92
0	21798	2499.489966117668	91
0	21866	2504.394841008379	90
0	21892	2508.20862485795	91
0	21938	2511.288906758589	92
0	21956	2513.838201522534	93
0	22044	2522.373662086869	92
0	22088	2527.05420049402	91
0	22124	2530.20467467589	90
0	22133	2532.058865065358	89
0	22142	2533.097039756407	88
0	22177	2536.677527448798	87
0	22202	2539.226289391148	88
0	22220	2540.859701539475	89
0	22236	2543.105330544051	90
0	22240	2543.643623061235	89
0	22271	2546.025589230984	90
0	22302	2550.295742139569	91
0	22428	2564.362769303985	92
0	22450	2568.19648242993	93
0	22496	2573.189157507475	94
0	22499	2573.210439369165	95
0	22505	2573.992051938386	96
0	22529	2575.916956982865	95
0	22538	2577.312641622706	94
0	22552	2578.955393578808	93
0	22563	2581.796833520287	94
0	22646	2588.174202781162	93
0	22667	2590.308728940865	94
0	22668	2590.546702594634	93
0	22720	2600.447541546959	92
0	22751	2604.8240596127	93
0	22795	2609.401832743444	92
0	22821	2612.169937973526	91
0	22845	2613.815916736898	90
0	22869	2616.821468516689	91
0	22879	2618.424831340899	90
0	22884	2618.448659832594	91
0	22890	2619.422163409942	90
0	22897	2619.879865309054	89
0	22903	2620.230610177564	88
0	22942	2626.300707752787	87
0	23015	2633.599197077466	88
0	23076	2641.128150316681	89
0	23108	2645.951733121616	88
0	23160	2656.322424514804	87
0	23201	2658.831157074097	88
0	23236	2662.876237752659	89
0	23251	2664.646538989957	90
0	23275	2667.145929003104	91
0	23318	2672.517099505526	90
0	23323	2672.804745519449	91
0	23430	2683.207784892409	92
0	23466	2685.971809877871	93
0	23469	2686.289690303045	94
0	23481	2688.013843238774	93
0	23527	2693.778552162562	92
0	23532	2693.824805461242	93
0	23543	2695.934989526894	92
0	23584	2701.403588128821	93
0	23616	2704.689053042752	94
0	23658	2707.620036294552	95
0	23691	2712.710753805032	96
0	23765	2719.142915057466	97
0	23794	2721.304772060987	96
0	23808	2721.640930925841	97
0	23813	2722.487240641465	98
0	23816	2722.775614342081	99
0	23882	2731.119987379334	98
0	23918	2733.377725339363	97
0	23977	2742.599621156807	96
0	23992	2744.44675104494	95
0	24003	2745.014403926082	96
0	24006	2745.252488379908	97
0	24010	2746.154091892607	96
0	24039	2750.459270539643	95
0	24069	2754.433570726726	96
0	24125	2759.536721994063	95
0	24172	2767.017604844671	94
0	24202	2770.61583714827	93
0	24227	2772.880956553596	92
0	24314	2781.75705881644	91
0	24359	2787.576097778268	92
0	24372	2788.662560576142	91
0	24396	2792.453514222125	90
0	24402	2792.966329572607	89
0	24408	2793.308127776127	88
0	24417	2793.966679003386	87
0	24449	2796.781192757966	88
0	24497	2803.375785186554	87
0	24531	2806.183149973537	86
0	24613	2814.411283678166	87
0	24651	2818.525400096931	86
0	24675	2820.612635027181	87
0	24685	2821.649837782443	86
0	24712	2825.97668063188	87
0	24716	2826.230896352448	86
0	24741	2830.403924713135	87
0	24751	2831.99142673871	86
0	24759	2832.176427575083	87
0	24775	2833.990549116396	86
0	24780	2834.095409097173	87
0	24806	2839.190759852153	88
0	24809	2839.291533179563	89
0	24810	2839.859294069105	88
0	24836	2843.652898085732	87
0	24937	2856.355836412898	88
0	24941	2856.510977671715	87
0	24962	2859.654883969315	86
0	24992	2862.982094627842	85
0	25049	2869.23447966638	86
0	25079	2873.282654461519	85
0	25186	2884.279209177013	86
0	25229	2891.16832721031	85
0	25241	2891.600010781311	84
0	25256	2892.189289758303	85
0	25268	2894.222013281095	86
0	25315	2899.53003125681	87
0	25348	2904.472122159728	88
0	25386	2910.258436437079	89
0	25410	2914.093836964182	90
0	25429	2915.764825095586	89
0	25448	2918.076462438448	90
0	25457	2919.067569523764	91
0	25488	2922.87954774864	92
0	25489	2922.977660583108	91
0	25495	2923.592619955942	90
0	25500	2924.303486795094	91
0	25505	2925.074663535384	92
0	25516	2926.235498442475	91
0	25536	2928.873885271836	92
0	25590	2934.527046659347	93
0	25665	2942.059807916281	94
0	25724	2947.997106027897	95
0	25742	2950.099453148414	96
0	25801	2956.739530058608	95
0	25880	2965.048837789646	96
0	25957	2973.319976919245	95
0	25962	2974.135267550308	96
0	25989	2976.355032610752	97
0	25996	2977.406901078744	96
0	26017	2979.134192528672	95
0	26040	2983.378665088248	96
0	26090	2991.205704864966	95
0	26099	2991.367755685743	96
0	26102	2991.989913413473	97
0	26105	2992.220014493086	98
0	26138	2996.004211500487	99
0	26214	3002.581524640579	98
0	26226	3005.136602358508	97
0	26285	3015.203410551479	98
0	26304	3017.256129274129	97
0	26387	3027.656025310605	98
0	26448	3035.003586784697	99
0	26449	3035.626882362076	98
0	26491	3039.984108207143	97
0	26525	3042.92290732898	98
0	26534	3043.705024618345	99
0	26542	3045.274175432969	98
0	26607	3053.026024266057	99
0	26611	3053.186404187003	98
0	26619	3054.840904494715	99
0	26646	3055.909450091812	100
0	26662	3058.855058216155	99
0	26693	3061.825719469012	98
0	26719	3064.236498649309	97
0	26727	3064.522685936108	98
0	26779	3070.009054934765	99
0	26780	3070.215375389061	98
0	26783	3070.267144651444	97
0	26794	3071.60026845444	98
0	26795	3071.718469981255	97
0	26807	3072.775412553964	98
0	26814	3073.484059834987	97
0	26842	3076.305956401667	98
0	26849	3077.252735047767	97
0	26903	3081.695850450197	98
0	26960	3086.621120607634	97
0	26980	3089.833240424879	98
0	27046	3097.132464878168	97
0	27105	3103.934050130707	96
0	27133	3107.677684013112	95
0	27143	3108.432953671898	94
0	27162	3111.472491804234	93
0	27215	3119.690037083868	94
0	27223	3121.243952123149	95
0	27307	3132.804772703621	96
0	27327	3136.360431310715	97
0	27330	3137.153958503453	98
0	27365	3140.590854819194	97
0	27373	3140.599007854792	98
0	27431	3148.196874054991	99
0	27458	3151.556134541206	100
0	27483	3155.00794148798	99
0	27518	3159.153375077807	100
0	27524	3159.691866966812	99
0	27585	3164.485196880934	98
0	27593	3165.719088146082	99
0	27612	3166.970006007237	100
0	27621	3167.593473116782	101
0	27625	3168.822190294808	100
0	27672	3174.455824381586	101
0	27687	3176.5552260921	102
0	27732	3180.440973982362	103
0	27738	3182.089224498549	104
0	27793	3186.635047941485	105
0	27824	3192.964252140577	104
0	27858	3195.777648666917	103
0	27866	3196.001423679885	104
0	27874	3196.377407667374	105
0	27906	3201.522805061336	106
0	27986	3210.550576569463	105
0	28090	3222.094155149776	104
0	28143	3227.686136241124	103
0	28166	3229.897315607892	104
0	28211	3236.602731725757	103
0	28331	3246.954078532625	104
0	28361	3250.688489969197	105
0	28367	3251.5479002686	104
0	28376	3252.07434226468	103
0	28407	3254.604511423013	104
0	28503	3266.519642121604	105
0	28522	3268.185459846836	104
0	28545	3269.547015583353	105
0	28554	3270.219017856557	106
0	28561	3270.9711480022	105
0	28588	3274.4210441601	104
0	28602	3274.979553322588	105
0	28611	3275.722751936428	106
0	28617	3276.712072407046	107
0	28646	3278.549488047921	108
0	28653	3279.267378151222	107
0	28661	3279.345464011441	108
0	28684	3281.673805790496	107
0	28701	3282.540819178488	108
0	28708	3283.217226266698	107
0	28759	3288.292198044987	106
0	28785	3289.786063963261	105
0	28876	3301.343175336068	106
0	28955	3309.723819270378	105
0	29067	3319.250705288914	106
0	29077	3319.785826263775	107
0	29096	3322.024550354085	106
0	29178	3337.480680354272	107
0	29184	3337.916954370353	108
0	29217	3339.582041225589	107
0	29255	3345.433875869994	106
0	29290	3347.427839820036	107
0	29317	3351.109121330686	108
0	29324	3352.026479749796	107
0	29351	3355.188533582012	108
0	29383	3357.251279041629	107
0	29394	3358.118696295532	106
0	29403	3358.206756001222	107
0	29421	3359.945722062175	108
0	29443	3362.424661799825	107
0	29463	3363.657152882283	106
0	29472	3364.239931640199	105
0	29529	3368.702196537567	106
0	29560	3371.601931094438	107
0	29577	3374.127653601485	106
0	29622	3377.315144976726	107
0	29703	3383.95354076256	106
0	29761	3391.806581642053	105
0	29767	3392.369206382973	104
0	29777	3393.661142811102	103
0	29786	3395.542953590652	102
0	29789	3395.960363139332	101
0	29824	3402.802407009336	100
0	29846	3406.736021996976	99
0	29861	3408.863966740361	98
0	29878	3411.475733134882	99
0	29882	3413.452660306249	98
0	29885	3413.607968179872	97
0	29902	3414.672634506732	98
0	29929	3418.312172151465	97
0	29969	3423.257076342324	98
0	29996	3427.098761780186	99
0	30011	3430.549601939978	98
0	30016	3431.059746624973	99
0	30020	3431.151185501464	98
0	30034	3434.775438235686	99
0	30045	3436.140074020089	98
0	30076	3441.244342243269	99
0	30083	3442.30142355213	98
0	30106	3445.758434089312	99
0	30109	3446.201657681057	100
0	30182	3458.165474377429	101
0	30233	3472.374758982808	102
0	30236	3472.659708681046	103
0	30262	3478.126407906441	104
0	30298	3485.196642549211	105
0	30316	3486.281197121975	104
0	30321	3488.539792515596	105
0	30324	3489.120340211089	106
0	30345	3490.610442166468	107
0	30366	3496.144085191678	108
0	30370	3498.177286631087	107
0	30376	3498.551384390639	106
0	30435	3510.311137409233	107
0	30460	3515.312271121962	106
0	30499	3520.654503099661	107
0	30542	3529.054423072725	106
0	30559	3532.22216843731	107
0	30575	3535.130089788497	106
0	30587	3536.128515200577	105
0	30599	3538.029757389303	104
0	30604	3539.253245639264	105
0	30607	3539.365366303135	106
0	30621	3542.11869113528	107
0	30647	3547.396562119012	106
0	30667	3549.576679952705	107
0	30675	3549.85713536019	108
0	30702	3552.517567073645	107
0	30707	3552.977561101404	108
0	30710	3553.048596554519	109
0	30713	3553.068524622135	110
0	30737	3555.217310778071	109
0	30740	3555.39978197441	108
0	30805	3563.402882424872	109
0	30819	3565.399429616274	110
0	30831	3568.515998930515	111
0	30849	3574.821884601212	112
0	30872	3579.577077952129	113
0	30929	3589.476320640525	112
0	30936	3591.071932911379	111
0	30961	3596.559649829474	110
0	31054	3609.024642738938	111
0	31057	3609.822971620756	112
0	31094	3614.016375998888	113
0	31095	3614.035353955204	112
0	31103	3615.508687227667	113
0	31121	3620.813432477732	114
0	31143	3624.414864086001	115
0	31155	3625.779855514365	116
0	31158	3625.805643277263	117
0	31198	3632.20040262258	118
0	31199	3632.480267601549	117
0	31206	3633.057782151094	116
0	31212	3634.125471135734	115
0	31217	3634.396310720448	116
0	31246	3639.772932699692	115
0	31264	3643.12649969141	114
0	31304	3652.197411191301	113
0	31397	3667.376946522283	112
0	31406	3668.318286222958	111
0	31468	3681.725455120941	112
0	31474	3682.33991743378	113
0	31481	3683.46473043967	112
0	31501	3686.506822597293	113
0	31521	3688.622535164813	112
0	31568	3695.743437818231	111
0	31587	3698.266888477135	110
0	31607	3699.261279932857	109
0	31621	3699.989810197791	110
0	31624	3700.221917750479	111
0	31671	3710.620044870611	110
0	31676	3711.652573843474	111
0	31696	3713.886635482808	110
0	31718	3717.826338689521	111
0	31724	3718.735040368659	112
0	31732	3719.817143301281	113
0	31746	3724.110803877052	114
0	31753	3725.333948080624	113
0	31759	3726.531756730076	112
0	31787	3731.071984624351	113
0	31829	3738.105939680043	114
0	31874	3743.478850513591	113
0	31889	3745.086647394412	112
0	31910	3750.610358557301	113
0	31911	3751.33762939677	112
0	31916	3751.952783791856	113
0	31919	3752.427272964325	114
0	31940	3755.526661779591	115
0	31947	3757.061156564929	114
0	31993	3764.973714874832	115
0	32000	3768.115609421178	114
0	32008	3769.560061800518	115
0	32011	3770.028630190185	116
0	32012	3770.501932181311	115
0	32015	3770.81420942941	114
0	32027	3772.683533699537	113
0	32033	3774.950275171138	112
0	32075	3780.332597166822	113
0	32100	3786.105565010117	112
0	32111	3786.729841231961	113
0	32125	3789.925397311339	112
0	32139	3792.213556180427	111
0	32145	3792.580998162107	110
0	32178	3797.343234705973	109
0	32263	3813.873236413379	110
0	32325	3822.01781276158	109
0	32337	3824.625035443739	108
0	32359	3826.660386025115	109
0	32393	3831.62284508168	108
0	32396	3832.588588083876	107
0	32407	3833.791128595756	108
0	32468	3844.832830938288	109
0	32475	3845.059615815467	110
0	32481	3846.440874606739	111
0	32484	3846.633699496296	112
0	32541	3854.044275245908	111
0	32596	3861.225083684509	110
0	32654	3871.221234739609	111
0	32682	3874.756568932393	112
0	32689	3875.859378186983	111
0	32694	3876.425648477272	112
0	32713	3879.576330246668	113
0	32731	3881.523777177871	114
0	32805	3894.432432327557	115
0	32828	3899.510348787329	116
0	32834	3903.035279696065	115
0	32856	3908.469518933981	116
0	32901	3916.003605677194	115
0	32916	3919.944967776397	114
0	32983	3927.795518803917	115
0	32986	3929.506464064245	116
0	33008	3933.904329525204	115
0	33083	3945.828895696742	114
0	33091	3947.192992797506	115
0	33119	3952.57403883655	114
0	33148	3956.319339629498	115
0	33151	3956.412182602954	116
0	33241	3969.409682666346	117
0	33248	3972.621163503018	116
0	33253	3974.234098937454	117
0	33293	3983.236773397926	116
0	33348	3991.148218459971	117
0	33376	3998.583984655597	116
0	33388	4002.267067970258	115
0	33429	4006.870675268934	114
0	33440	4007.342548437133	115
0	33455	4010.418183048056	116
0	33456	4011.542813693877	115
0	33461	4012.783117100217	116
0	33488	4017.957774795444	117
0	33525	4024.237469993765	116
0	33543	4026.254785741035	115
0	33554	4028.80592084963	116
0	33566	4031.872573044843	115
0	33597	4038.52253141257	114
0	33610	4039.082236646963	115
0	33625	4042.733893132708	114
0	33681	4053.092359560814	115
0	33684	4053.666787697819	116
0	33714	4057.583065949568	117
0	33751	4063.713004049938	118
0	33760	4066.205295090256	119
0	33764	4069.639693387523	118
0	33777	4070.631719177375	119
0	33778	4070.809736316468	118
0	33791	4072.809115747383	117
0	33810	4075.402116641981	118
0	33876	4088.450901624777	119
0	33880	4089.208400494196	118
0	33883	4091.640147121622	117
0	33911	4095.079590455786	116
0	33940	4098.953707651329	115
0	33963	4103.217112032073	116
0	34025	4110.58196824805	117
0	34036	4112.655275151043	118
0	34037	4113.100160423118	117
0	34046	4116.006983578312	116
0	34049	4116.230332085803	115
0	34087	4121.253432904537	114
0	34090	4122.064780989298	113
0	34097	4122.382714231551	112
0	34103	4123.730860716504	111
0	34106	4124.079279712953	110
0	34122	4127.993653455155	109
0	34135	4129.408198648938	110
0	34157	4133.836733930257	109
0	34171	4135.267389659261	110
0	34223	4146.031031629971	111
0	34251	4150.17049837278	110
0	34267	4152.451511638315	109
0	34279	4155.168413472849	108
0	34314	4160.619029627607	109
0	34320	4163.552848313476	110
0	34343	4166.204538707186	111
0	34352	4167.657174135097	112
0	34361	4168.539364593178	113
0	34372	4169.510185436577	114
0	34377	4171.255935748521	113
0	34446	4181.077431451591	114
0	34470	4185.123704941442	115
0	34477	4186.507033455805	114
0	34504	4191.922373691879	115
0	34508	4194.21224977594	114
0	34511	4194.85911246668	113
0	34538	4199.566015625731	112
0	34555	4202.451508294736	111
0	34567	4203.140140975852	112
0	34573	4205.26173198791	113
0	34586	4206.35614758231	114
0	34590	4207.589691409765	113
0	34619	4213.63326320405	114
0	34623	4214.853696959839	113
0	34637	4216.091317663758	112
0	34642	4216.659114292791	113
0	34683	4226.074552510109	114
0	34693	4228.208407662612	113
0	34733	4233.799992449247	114
0	34759	4236.272364584893	113
0	34767	4237.639239193613	114
0	34790	4242.412099693499	115
0	34808	4250.007396164953	114
0	34818	4250.751515509468	113
0	34858	4257.160431558128	114
0	34870	4258.504557190766	115
0	34876	4258.753089520515	116
0	34918	4264.007786956556	117
0	34958	4271.61279705972	118
0	35000	4282.117972992506	117
0	35074	4293.873685026535	118
0	35088	4296.12675026142	117
0	35128	4302.535070140574	118
0	35150	4304.848580664484	117
0	35155	4304.987327748725	118
0	35227	4314.688611915483	117
0	35230	4314.773256625558	116
0	35274	4319.366715979997	115
0	35337	4329.539058733113	116
0	35341	4329.991885689392	115
0	35349	4330.620657964778	116
0	35365	4332.376775839777	115
0	35376	4334.392884851218	114
0	35385	4334.803197469376	113
0	35433	4341.470386662104	112
0	35441	4345.236859696841	113
0	35449	4345.909643393742	114
0	35455	4346.469775076862	113
0	35488	4349.448369004994	114
0	35489	4349.821876130714	113
0	35500	4350.720197379697	114
0	35503	4351.435400680034	115
0	35512	4353.262529550414	116
0	35530	4357.31523430432	115
0	35541	4360.031314253085	114
0	35565	4363.470248649906	113
0	35571	4367.844921138105	112
0	35578	4368.959955274924	113
0	35599	4372.013579890545	112
0	35609	4375.993100537067	111
0	35621	4376.768618105925	112
0	35653	4382.136675536192	113
0	35670	4384.489191110974	112
0	35681	4386.280188886238	113
0	35684	4386.351740079976	114
0	35713	4393.349313397793	113
0	35719	4394.99783416755	112
0	35760	4404.101510333669	113
0	35779	4406.550552526148	112
0	35797	4408.312817750943	111
0	35800	4408.687060032006	110
0	35809	4408.890389850085	109
0	35833	4413.146522607098	110
0	35845	4416.733370670106	111
0	35858	4419.403630743635	112
0	35872	4422.638504933551	113
0	35892	4424.704578943794	114
0	35913	4428.9385506433	113
0	35939	4431.158322052725	114
0	35948	4434.326665001689	113
0	35966	4437.232482938511	112
0	35974	4437.573190875888	113
0	35977	4437.860457100256	114
0	35978	4437.906344997279	113
0	35995	4439.854397725036	114
0	36004	4442.099904355065	115
0	36023	4446.122969090929	114
0	36055	4451.283749765983	115
0	36157	4468.55009110329	114
0	36181	4470.731166312954	113
0	36222	4481.355078163729	112
0	36239	4484.182313393147	113
0	36245	4484.392638371031	114
0	36286	4492.662042554088	115
0	36334	4500.703379394969	114
0	36364	4502.52214620259	115
0	36381	4506.792121856425	116
0	36396	4511.052216659569	117
0	36406	4514.38055662004	118
0	36421	4516.212680028498	117
0	36451	4521.776384766608	116
0	36505	4531.141611790787	117
0	36536	4537.821903979459	118
0	36637	4549.264966908856	117
0	36694	4557.626932494606	118
0	36704	4558.633738251936	117
0	36725	4561.222984363013	116
0	36739	4565.986863150141	117
0	36775	4571.187203321156	118
0	36778	4572.871017723069	119
0	36787	4574.954957543053	118
0	36814	4578.953244267092	117
0	36819	4579.143012413231	118
0	36835	4581.719125836242	119
0	36836	4581.860211567155	118
0	36856	4584.452608868311	119
0	36886	4589.887642650999	118
0	36902	4591.175834205253	117
0	36907	4591.345366738387	118
0	36916	4594.597044418501	117
0	36943	4598.657055758417	116
0	36949	4598.925984663191	115
0	36954	4599.095602513606	116
0	37027	4609.941809412248	117
0	37028	4610.15018563703	116
0	37061	4614.278017384411	117
0	37128	4625.323719422364	116
0	37140	4626.904339948759	115
0	37178	4631.792938838777	116
0	37256	4642.998475086806	117
0	37263	4643.579159690273	116
0	37269	4643.629133084282	115
0	37327	4656.612690852001	116
0	37336	4658.221200876164	117
0	37339	4660.587940451849	118
0	37367	4668.237118815938	117
0	37376	4669.815841157873	116
0	37405	4674.588810695904	117
0	37440	4678.399987679195	118
0	37451	4680.294313903048	117
0	37495	4690.077371151903	116
0	37515	4694.041313793278	115
0	37518	4695.653728412171	114
0	37523	4696.516493304174	115
0	37533	4697.566674504256	116
0	37536	4697.777400138949	117
0	37544	4698.686447957703	118
0	37570	4700.960794118566	119
0	37597	4704.528518071473	118
0	37607	4706.618966218922	117
0	37610	4706.808613028874	116
0	37615	4707.456087282678	117
0	37622	4709.562666433065	116
0	37631	4710.657673385386	115
0	37645	4711.314053575947	116
0	37687	4719.958951006057	117
0	37716	4725.87304750849	118
0	37741	4730.365935013356	117
0	37757	4731.386834629463	118
0	37807	4737.468905046723	117
0	37814	4737.780628934106	118
0	37852	4742.963042301634	117
0	37892	4748.980826048613	116
0	37945	4758.980325281344	117
0	37951	4759.086893449714	118
0	37992	4764.344067779054	117
0	38032	4772.24269957903	118
0	38051	4775.295978247413	119
0	38082	4782.571365287629	118
0	38189	4798.696745724517	119
0	38209	4803.906476995556	120
0	38221	4805.875376484454	121
0	38296	4825.138448023385	122
0	38370	4839.064923647788	121
0	38379	4840.310151320281	120
0	38390	4842.54357296899	121
0	38410	4852.059938194858	122
0	38420	4856.578033805848	121
0	38431	4857.682961757362	122
0	38443	4859.216397704936	123
0	38482	4867.402223740833	122
0	38500	4870.076188768698	121
0	38506	4871.487207940993	120
0	38511	4873.854575201494	121
0	38546	4878.885923067986	122
0	38562	4881.678829535892	123
0	38585	4885.192388531084	124
0	38590	4886.317581679151	123
0	38593	4887.183823399956	122
0	38607	4890.866503164816	123
0	38625	4892.092190986395	122
0	38654	4897.795142822062	123
0	38721	4912.393718280603	124
0	38730	4916.350634390552	125
0	38744	4918.518550237847	124
0	38755	4918.851629412913	125
0	38756	4919.127789545127	124
0	38811	4929.49519394593	125
0	38814	4929.508439013287	126
0	38860	4941.578418783941	125
0	38920	4950.007004179816	124
0	38956	4955.470225908749	125
0	38957	4955.586769656606	124
0	38981	4958.328133266271	123
0	39038	4965.634518489678	124
0	39069	4972.482450450658	125
0	39103	4980.357845383131	126
0	39110	4982.02293237199	125
0	39152	4992.464219689555	124
0	39180	4994.613885500341	125
0	39186	4995.940881312297	126
0	39190	4996.729792170753	125
0	39203	4997.760304011128	126
0	39209	4999.525969135933	127
0	39234	5003.809649734449	128
0	39240	5004.500007615788	129
0	39241	5004.780902251049	128
0	39262	5009.005328591128	127
0	39268	5009.814305107674	126
0	39293	5014.66372407046	127
0	39314	5017.605313019338	128
0	39375	5031.698900134455	129
0	39379	5032.647160232494	128
0	39412	5040.928122932106	129
0	39431	5046.160042825476	130
0	39440	5047.77910386332	131
0	39447	5049.579353252833	130
0	39452	5049.943449774235	131
0	39456	5051.366093279183	130
0	39478	5054.743787284205	129
0	39497	5057.135962590734	128
0	39561	5066.147654568946	129
0	39562	5066.272442320272	128
0	39567	5067.45399560871	129
0	39597	5072.11221288775	130
0	39624	5074.631700639727	129
0	39641	5075.788571207217	130
0	39647	5076.925112908498	131
0	39705	5085.450247384567	130
0	39710	5086.218207236479	129
0	39718	5088.204053287314	130
0	39730	5091.301034190234	131
0	39733	5091.559653722655	132
0	39760	5095.386491733045	133
0	39828	5105.767094393504	134
0	39829	5107.244883990392	133
0	39832	5107.478965083974	132
0	39908	5120.51403982513	133
0	39916	5122.157156237651	132
0	39972	5131.408031827892	131
0	39977	5132.891315443813	130
0	40010	5137.547147692339	131
0	40095	5153.302801537431	132
0	40129	5158.357095693078	133
0	40145	5162.168818896563	134
0	40170	5167.868424085451	135
0	40171	5167.888531498872	134
0	40182	5171.46958792292	133
0	40194	5176.479844232965	132
0	40241	5184.80953874645	133
0	40252	5185.445117685593	134
0	40269	5187.233163841772	135
0	40284	5190.293923677958	136
0	40310	5192.809755849568	137
0	40338	5195.502520030274	138
0	40377	5203.020974402451	139
0	40423	5208.05669965873	138
0	40520	5229.242308769566	139
0	40524	5230.077913944914	138
0	40544	5235.860612312904	137
0	40549	5236.32236203148	138
0	40581	5245.19137931421	139
0	40588	5245.996485060249	138
0	40603	5252.367589018686	137
0	40608	5253.118813272948	138
0	40625	5256.996119501202	139
0	40643	5260.172454937647	140
0	40649	5261.180222568589	141
0	40667	5265.316003638373	142
0	40670	5265.519582454162	143
0	40709	5270.460171291108	142
0	40714	5271.202844824369	143
0	40743	5275.244954974765	144
0	40761	5279.052017686507	145
0	40783	5287.294737125692	144
0	40857	5297.287473108768	145
0	40861	5298.749992985714	144
0	40877	5300.163825432664	143
0	40928	5310.415436610897	144
0	40931	5311.899405150569	143
0	40975	5318.818754611268	144
0	40982	5321.155935117109	143
0	41052	5329.395206401087	144
0	41128	5348.020714969258	143
0	41151	5349.879644501705	144
0	41152	5351.607716704776	143
0	41173	5357.038129804339	144
0	41179	5359.305142309948	145
0	41208	5363.902795328982	144
0	41245	5368.876703365702	145
0	41263	5373.310103361081	146
0	41267	5374.326935797643	145
0	41291	5378.977200401374	146
0	41292	5379.052368620761	145
0	41295	5379.80328422043	144
0	41305	5382.137892368872	143
0	41359	5392.675922406104	142
0	41383	5394.431120764787	141
0	41388	5394.662871395548	142
0	41400	5395.560209882428	141
0	41417	5396.744328444801	142
0	41418	5397.078163722154	141
0	41439	5398.618628500105	142
0	41440	5399.271916305193	141
0	41529	5411.092483090001	140
0	41535	5412.467412131207	139
0	41561	5418.038200565169	140
0	41577	5420.436891983052	141
0	41589	5422.204618493808	142
0	41614	5427.317561328408	143
0	41621	5428.479622618882	144
0	41631	5431.043702217445	143
0	41640	5432.280767268131	144
0	41657	5434.39317662221	145
0	41742	5453.787514124209	144
0	41772	5457.020268869641	143
0	41781	5457.769775296371	144
0	41795	5462.176368213959	143
0	41831	5471.649766411899	142
0	41841	5473.283829391705	143
0	41847	5475.048245404964	144
0	41848	5475.240851402609	143
0	41858	5476.343433096035	144
0	41890	5481.628706233167	145
0	41891	5482.467605482306	144
0	41896	5482.788991298277	145
0	41919	5489.122123712037	146
0	41935	5491.444813908189	147
0	41942	5493.531332513927	146
0	41966	5498.055423341117	145
0	41980	5500.920137007395	146
0	42015	5506.497251496661	147
0	42018	5508.058862261785	146
0	42027	5510.796510767265	145
0	42090	5520.060876960199	146
0	42119	5522.938387365008	147
0	42131	5526.120367507453	146
0	42145	5528.237818895192	145
0	42190	5533.17309868566	146
0	42196	5533.619328969694	145
0	42221	5538.577371124705	146
0	42224	5538.636545694306	147
0	42242	5543.557110991856	148
0	42271	5547.955298522384	149
0	42326	5558.0494343363	150
0	42329	5560.199174114328	151
0	42354	5562.65138286161	150
0	42359	5562.88847967133	151
0	42376	5563.939368144882	152
0	42379	5564.236827797314	153
0	42431	5573.734756791788	154
0	42454	5576.99429477471	153
0	42467	5577.922524976974	154
0	42473	5578.930517024357	153
0	42496	5583.557802427189	152
0	42507	5585.189886071244	153
0	42531	5590.510371327603	154
0	42532	5590.781746454161	153
0	42550	5593.417768730847	152
0	42621	5607.124203173011	153
0	42646	5609.26564105414	154
0	42652	5610.108953260914	155
0	42664	5612.553842998882	154
0	42681	5615.940954151936	155
0	42695	5620.132671269373	154
0	42703	5622.002848356266	155
0	42725	5626.500104936985	154
0	42742	5630.249213231709	155
0	42760	5635.532433752843	156
0	42787	5639.409076113235	157
0	42812	5645.849204944037	156
0	42836	5650.686132318602	157
0	42879	5661.959162334272	156
0	42910	5668.478081121084	155
0	42913	5669.184923071192	154
0	42921	5670.761226154477	155
0	42963	5674.366017286555	154
0	42978	5675.337113575471	155
0	42981	5675.367629508619	156
0	42993	5678.108481931542	157
0	43017	5680.750434887965	156
0	43041	5685.008399620622	155
0	43067	5689.356825395518	156
0	43078	5691.21192196528	155
0	43090	5696.175112539434	154
0	43146	5704.377021167161	155
0	43214	5720.390271797294	156
0	43248	5725.933189737086	155
0	43289	5730.855559074779	156
0	43313	5735.245313320062	157
0	43317	5737.859652600195	156
0	43344	5740.894168349895	157
0	43347	5741.646716764673	158
0	43369	5745.211922406299	159
0	43370	5746.218210216502	158
0	43391	5749.80275537527	157
0	43414	5755.281753626074	156
0	43425	5756.38297692199	157
0	43442	5758.684784206356	158
0	43443	5758.729078863122	157
0	43463	5761.285532717794	158
0	43466	5761.64600023139	159
0	43544	5779.341134827295	160
0	43581	5788.460782045524	161
0	43596	5790.138059314964	160
0	43604	5790.707085506205	161
0	43626	5792.129337071372	162
0	43632	5792.854915597373	163
0	43650	5795.20865499248	164
0	43674	5798.405363188383	165
0	43704	5804.216009281274	164
0	43729	5808.150016357491	163
0	43734	5810.937408706309	164
0	43754	5816.002264978909	165
0	43755	5817.17097764904	164
0	43760	5817.319507408044	165
0	43777	5819.754065912708	164
0	43789	5820.141574879942	163
0	43798	5820.695204514313	162
0	43843	5828.66957222266	163
0	43858	5831.505373512069	162
0	43891	5837.626077655187	163
0	43898	5839.38522342886	162
0	43911	5842.57363339914	163
0	43941	5848.750433077768	162
0	43952	5852.548238173909	163
0	43969	5855.803505504179	162
0	43985	5859.456875986384	161
0	44034	5869.389476703315	162
0	44081	5878.955120222421	161
0	44086	5880.014129299134	162
0	44089	5880.063475851374	163
0	44092	5880.087544953452	164
0	44115	5882.86172638763	163
0	44170	5893.001349401266	164
0	44171	5893.344383296101	163
0	44192	5897.646339234654	164
0	44234	5912.230795316739	165
0	44244	5913.010635015417	166
0	44249	5915.446173772288	165
0	44254	5915.662085334282	166
0	44297	5928.869426265852	167
0	44298	5929.331394806646	166
0	44335	5939.233773284472	167
0	44358	5942.111282289509	166
0	44412	5954.471420874545	165
0	44424	5955.935135808515	166
0	44433	5957.256907190729	167
0	44456	5958.981340835068	168
0	44460	5959.420906337316	167
0	44477	5963.236833264377	168
0	44480	5963.756082908029	169
0	44492	5965.713186552119	168
0	44507	5972.259133040491	167
0	44512	5972.652192376136	168
0	44519	5972.934170048362	167
0	44536	5975.169975190666	168
0	44562	5978.434860724149	167
0	44576	5979.621426763921	168
0	44588	5980.497944388575	169
0	44589	5981.81243781665	168
0	44602	5983.892351188306	167
0	44611	5984.732400512753	166
0	44616	5986.014275738395	167
0	44620	5987.080441903741	166
0	44633	5988.135200934439	167
0	44655	5990.738943817565	168
0	44661	5990.923387033527	169
0	44716	5999.089908825177	168
0	44738	6000.493936789872	169
0	44837	6015.011197192144	168
0	44843	6016.627178962793	167
0	44851	6017.958655207802	168
0	44876	6023.680074126759	169
0	44885	6026.253216032176	170
0	44895	6029.020114176451	171
0	44901	6030.461308381432	172
0	44921	6034.010828384748	173
0	45000	6048.648758753987	172
0	45015	6050.895563774852	173
0	45038	6055.172723047066	172
0	45076	6063.462896638778	171
0	45088	6063.844041700168	172
0	45103	6068.99487700238	171
0	45126	6074.595801097089	170
0	45131	6075.983602416116	171
0	45144	6078.562489663582	170
0	45178	6082.564563900612	169
0	45188	6083.324290963322	168
0	45202	6086.056680800045	169
0	45221	6089.306686490179	170
0	45237	6093.988929415737	169
0	45242	6095.891721340102	170
0	45248	6096.703885410294	171
0	45253	6098.198037448228	170
0	45264	6100.123793333282	169
0	45285	6103.757009065973	170
0	45302	6107.14363726568	171
0	45326	6110.929501975782	172
0	45336	6112.648933520267	173
0	45400	6121.490129893005	172
0	45406	6121.798695879551	171
0	45428	6126.893216400934	170
0	45436	6129.018701670183	171
0	45517	6141.698592397841	170
0	45529	6143.35242476634	169
0	45532	6143.502595194502	168
0	45544	6144.287026068452	169
0	45545	6145.069623150476	168
0	45574	6152.722444387725	169
0	45601	6159.861103848588	168
0	45619	6161.45016290568	169
0	45631	6163.601410928141	170
0	45690	6172.72839342592	171
0	45698	6174.369652904922	170
0	45762	6186.824160829565	169
0	45770	6189.629874592092	168
0	45773	6190.308802300617	167
0	45810	6195.573812929215	166
0	45826	6199.236117085974	167
0	45835	6199.95949766476	166
0	45838	6200.346926798248	165
0	45841	6200.884139482189	164
0	45846	6201.548174956887	165
0	45862	6202.885847166033	166
0	45880	6208.040185293495	165
0	45903	6210.760690504391	164
0	45912	6211.802413991867	165
0	45934	6216.68704288598	166
0	45945	6218.086044930961	167
0	45980	6222.284128533557	166
0	45995	6223.578804769704	165
0	46008	6224.586422587224	164
0	46013	6224.737785043561	165
0	46032	6227.007999203339	166
0	46066	6234.556657627889	167
0	46069	6234.789502919411	168
0	46085	6235.96106374049	167
0	46096	6238.449643700352	168
0	46110	6244.616753539157	167
0	46143	6250.498981874566	168
0	46147	6252.575274782421	167
0	46153	6252.98051642129	166
0	46167	6255.319067624779	167
0	46173	6256.211306480225	168
0	46179	6258.967845931935	169
0	46191	6261.950699075912	168
0	46225	6266.073364309996	167
0	46237	6267.647170368206	166
0	46251	6269.522569003448	165
0	46266	6271.86467338967	164
0	46326	6279.411523759545	165
0	46338	6281.120644918741	166
0	46361	6287.605152002962	165
0	46418	6296.33750198216	166
0	46447	6298.941382008239	167
0	46469	6305.015539253986	166
0	46559	6315.411046748559	165
0	46618	6326.582366356886	164
0	46647	6330.500727895323	163
0	46671	6334.799632256621	164
0	46674	6335.725651306008	163
0	46697	6338.754128568959	164
0	46743	6347.303415597919	165
0	46771	6354.107017849715	166
0	46806	6364.228527878666	165
0	46835	6375.78139326471	166
0	46845	6376.412151771725	167
0	46869	6382.995710910451	168
0	46875	6384.571699865443	169
0	46885	6385.64585942442	168
0	46895	6385.781750511294	169
0	46910	6387.97456312013	170
0	46931	6391.752614307833	171
0	46937	6391.909232393504	172
0	46972	6396.085769586993	173
0	46981	6398.800743294429	174
0	46994	6401.612064040914	173
0	47002	6403.623499835795	174
0	47003	6404.246899447964	173
0	47039	6408.545676400416	172
0	47070	6414.633981320964	171
0	47092	6417.117784015535	172
0	47126	6425.276960409332	173
0	47193	6436.332734819518	172
0	47201	6436.649503604723	173
0	47202	6437.174243709407	172
0	47266	6448.126296416582	173
0	47302	6452.362011786838	172
0	47316	6452.977745357771	173
0	47339	6457.4241347415	172
0	47376	6464.172146947224	171
0	47398	6466.322280848023	172
0	47429	6469.453249091177	171
0	47438	6470.99663100397	170
0	47452	6472.511473935059	169
0	47468	6474.618105144504	170
0	47497	6479.957552168835	171
0	47524	6486.59551778827	172
0	47538	6489.050454439284	173
0	47539	6489.520797737503	172
0	47544	6489.685388002566	173
0	47550	6491.235224211897	174
0	47622	6509.375240131145	173
0	47637	6514.101686101256	172
0	47640	6516.75335334072	171
0	47679	6528.038255238081	170
0	47682	6528.038625527468	169
0	47694	6533.210856293538	168
0	47703	6538.117400154406	167
0	47711	6539.382858664054	166
0	47731	6559.652976751288	165
0	47734	6562.637278405927	164
0	47737	6565.851603386954	163
0	47777	6578.628167828588	162
0	47804	6584.85605272669	161
0	47812	6589.3106092492	160
0	47840	6603.779047435837	159
0	47846	6606.91240992479	158
0	47852	6609.200556223319	157
0	47855	6609.208344325589	156
0	47876	6622.273188783868	155
0	47879	6624.306096458996	154
0	47892	6625.973159935605	153
0	47918	6638.481503431741	152
0	47929	6640.053353014518	151
0	47942	6650.207439383054	150
0	47972	6659.541379902718	149
0	47983	6661.144409204302	148
0	48007	6675.040254450458	147
0	48030	6684.575410431686	146
0	48055	6694.996943347334	145
0	48066	6696.229490216815	144
0	48100	6716.53854903968	143
0	48107	6721.653658411296	142
0	48141	6735.196513567358	141
0	48144	6735.286995002699	140
0	48150	6736.684976722464	139
0	48153	6738.267487958989	138
0	48168	6744.95543887504	137
0	48190	6755.249592886123	136
0	48210	6764.555851563029	135
0	48217	6766.519720133841	134
0	48230	6772.954411617865	133
0	48293	6799.731463365543	132
0	48296	6800.90368577545	131
0	48303	6804.041227439488	130
0	48324	6808.994456645756	129
0	48344	6821.521004760488	128
0	48347	6821.824930527989	127
0	48360	6826.325335004094	126
0	48365	6827.493446746991	125
0	48375	6833.619692290153	124
0	48446	6853.818227966898	123
0	48490	6869.479805419096	122
0	48514	6880.630169796136	121
0	48557	6890.512770936436	120
0	48563	6893.019326722633	119
0	48566	6894.252262225993	118
0	48572	6895.855944781237	117
0	48581	6897.195785350213	116
0	48584	6898.488456221646	115
0	48599	6902.167003095612	114
0	48643	6922.054706457668	113
0	48661	6929.881798662425	112
0	48670	6931.929450540557	111
0	48673	6933.183953566003	110
0	48694	6939.536924442077	109
0	48713	6946.615593950491	108
0	48729	6953.012928111205	107
0	48732	6953.504518136342	106
0	48735	6958.067927004865	105
0	48738	6959.932419433542	104
0	48755	6964.768847876545	103
0	48787	6980.253305784273	102
0	48794	6985.064303798964	101
0	48818	7000.844147504078	100
0	48824	7003.948725839206	99
0	48857	7033.862799110553	98
0	48873	7044.150823358346	97
0	48894	7049.655821376263	96
0	48938	7069.227051415699	95
0	48941	7069.346474608686	94
0	48963	7076.434197815286	93
0	48988	7084.572854339705	92
0	49024	7101.516328242644	91
0	49031	7104.750153070141	90
0	49062	7121.718807238128	89
0	49104	7146.814669146235	88
0	49110	7147.601118922807	87
0	49160	7177.749569225795	86
0	49196	7189.751566548398	85
0	49199	7190.620589533365	84
0	49215	7201.376041985969	83
0	49228	7202.994651300829	82
0	49251	7212.255762210766	81
0	49271	7216.513479988872	80
0	49285	7223.292773132625	79
0	49317	7229.123211154615	78
0	49337	7234.433497420457	77
0	49385	7251.766227449935	76
0	49454	7278.245327351205	75
0	49472	7282.431340130334	74
0	49475	7283.17426928604	73
0	49486	7287.890940246009	72
0	49489	7288.800388168574	71
0	49492	7289.892572965672	70
0	49498	7291.977237331474	69
0	49508	7293.744382126747	68
0	49511	7294.226116555056	67
0	49522	7300.952208045117	66
0	49533	7305.213716734033	65
0	49539	7307.830753231135	64
0	49558	7314.056522575719	63
0	49568	7317.483878161504	62
0	49577	7319.181801936822	61
0	49600	7328.63642988925	60
0	49621	7344.111954635707	59
0	49629	7347.859764362498	58
0	49635	7354.093904982153	57
0	49668	7367.205965477127	56
0	49671	7367.81358916222	55
0	49692	7377.676611814807	54
0	49695	7378.084512620477	53
0	49704	7379.817000964753	52
0	49707	7380.213162670648	51
0	49766	7404.952400622301	50
0	49781	7407.948180024722	49
0	49784	7408.275625212372	48
0	49787	7409.582874711628	47
0	49790	7409.906837613611	46
0	49818	7419.082004841442	45
0	49885	7445.195807988059	44
0	49890	7447.407268964195	43
0	49917	7455.933824449327	42
0	49991	7483.427822391685	41
0	50022	7498.132790864381	40
0	50025	7498.316406759841	39
0	50031	7500.395420466379	38
0	50043	7508.600791213784	37
0	50051	7512.21987639035	36
0	50059	7514.533834547761	35
0	50064	7515.386875180831	34
0	50067	7515.650540718318	33
0	50098	7529.295789594526	32
0	50113	7536.807808256773	31
0	50131	7542.385367371491	30
0	50148	7546.317616829571	29
0	50151	7548.445344693841	28
0	50197	7566.706636727737	27
0	50200	7570.583897024807	26
0	50220	7574.486039459846	25
0	50263	7587.09470770077	24
0	50319	7601.579287980254	23
0	50326	7603.809560298007	22
0	50346	7607.129921994572	21
0	50372	7616.175482720747	20
0	50387	7623.3922831463	19
0	50408	7630.589125027195	18
0	50411	7631.109652392321	17
0	50463	7653.512529002212	16
0	50470	7653.904982369265	15
0	50486	7656.071085910941	14
0	50504	7658.369967559654	13
0	50573	7678.433619658418	12
0	50579	7683.942583330541	11
0	50582	7684.201119174274	10
0	50592	7691.791790346996	9
0	50621	7705.644002468793	8
0	50650	7726.2290710523	7
0	50653	7726.561781991644	6
0	50676	7742.222288868153	5
0	50683	7744.418482994359	4
0	50711	7754.163231870211	3
0	50761	7764.413288527682	2
0	50774	7765.257517917461	1
0	50795	7773.235045800758	0
1	0	0	0
1	7	0.898560388484	1
1	10	2.051805262613	2
1	13	2.850105724368	3
1	16	3.827112150761	4
1	19	3.930769316816	5
1	22	4.283928455954	6
1	25	4.312240314483	7
1	28	4.342313125047	8
1	31	4.630596455325	9
1	34	4.991759473298	10
1	37	5.645642040519	11
1	44	6.30280765565	12
1	47	6.393968681774	13
1	50	6.414394270173	14
1	53	7.95288331381	15
1	56	8.201881933612	16
1	57	8.273981869479	15
1	65	9.458667572447	16
1	68	10.242196191554	17
1	71	10.861125651181	18
1	74	11.063907129509	19
1	77	11.189781538947	20
1	80	12.211213413296	21
1	83	12.365943093796	22
1	95	13.115488916927	23
1	101	14.564906045722	24
1	107	15.260363571783	25
1	110	15.545255553989	26
1	113	16.207360248958	27
1	116	16.504803531357	28
1	123	17.649942486057	29
1	129	19.085275270236	30
1	132	19.147390560702	31
1	138	20.246303028253	32
1	144	20.482509734336	33
1	147	20.531180137942	34
1	150	21.467241697713	35
1	156	21.860354255017	36
1	159	21.871552424127	37
1	165	22.437678565824	38
1	177	23.495504979176	39
1	188	24.55424769427	40
1	191	24.834524702749	41
1	194	25.007652158895	42
1	197	25.124607568687	43
1	200	26.192679765837	44
1	203	26.326049270303	45
1	206	26.341392035089	46
1	213	26.801405992829	47
1	224	27.776507926985	48
1	227	28.265261524527	49
1	232	28.97784511786	50
1	235	29.035172044284	51
1	242	29.655309059071	52
1	245	29.881829227777	53
1	248	29.987719300035	54
1	251	30.009885993088	55
1	254	30.136274629513	56
1	257	30.338895389416	57
1	260	30.518975578375	58
1	263	30.585272979857	59
1	266	30.873779765173	60
1	269	31.709877297143	61
1	272	31.764462506922	62
1	275	32.018292137241	63
1	281	32.505221457369	64
1	287	33.358398300832	65
1	293	34.459244210923	66
1	301	35.154477386045	67
1	304	35.356827824612	68
1	310	35.501024865102	69
1	319	36.143008013131	70
1	322	36.239956866571	71
1	325	36.554678527426	72
1	330	37.275642155103	73
1	339	37.883436401176	74
1	342	38.741829369005	75
1	343	39.420279009528	74
1	348	39.638420239791	75
1	351	40.550785332818	76
1	354	40.65707896981	77
1	357	41.796686933343	78
1	360	42.393066327673	79
1	363	42.772292231292	80
1	366	42.895818878654	81
1	369	44.352637437218	82
1	372	44.883359933835	83
1	375	46.008641950679	84
1	378	46.236072910917	85
1	381	46.296052426749	86
1	382	46.2989675832	85
1	387	46.611811753324	86
1	395	47.903721022125	87
1	398	48.1657782638	88
1	401	48.668089062061	89
1	408	49.6604228798	90
1	411	50.01935009567	91
1	414	50.276647335878	92
1	417	50.619246960576	93
1	420	51.098670294326	94
1	430	51.727195994795	95
1	433	52.012855496645	96
1	436	52.164224008569	97
1	439	52.198427426927	98
1	446	52.815407482404	99
1	449	53.065488977382	100
1	452	53.217782602636	101
1	455	53.320103217489	102
1	456	53.490645007738	101
1	469	55.933328904847	100
1	474	56.265036404533	101
1	479	56.78287177321	100
1	484	57.457912977999	101
1	489	58.784318534616	102
1	492	59.297645763076	103
1	499	59.335928675961	104
1	517	61.134495824367	105
1	520	61.368622161658	106
1	531	61.835894728068	107
1	534	61.887807280251	108
1	537	62.342719125043	109
1	544	62.621816200201	110
1	547	63.06806902072	111
1	554	64.377367384743	112
1	560	65.11349848473	113
1	569	65.382172170631	114
1	572	65.527477407403	115
1	575	65.780983112546	116
1	578	66.204640213903	117
1	583	66.960584892737	118
1	590	68.17938169608	119
1	597	68.836859076452	120
1	600	69.330821195727	121
1	603	70.037829982994	122
1	606	70.348797787964	123
1	616	71.485394283221	124
1	619	72.795179654583	125
1	625	73.169066150486	126
1	628	73.407819023334	127
1	631	73.659417636447	128
1	634	73.906276905246	129
1	639	74.209954083721	130
1	642	74.74925568066	131
1	645	74.811633070245	132
1	654	76.041925263099	133
1	662	76.611822828405	134
1	669	78.263734361197	135
1	681	78.740492922936	136
1	691	79.225173932768	137
1	694	79.878031428477	138
1	704	81.495013948552	139
1	710	83.863932119389	140
1	713	83.884799337999	141
1	723	84.517683954851	142
1	726	84.910256983039	143
1	729	85.305182793584	144
1	732	85.305238145479	145
1	735	85.643624656207	146
1	738	85.679001439296	147
1	745	86.197795485255	148
1	748	86.806840097964	149
1	751	87.467343177713	150
1	754	87.844765120171	151
1	757	88.105405249547	152
1	760	89.022006115522	153
1	766	89.398435467043	154
1	769	90.128663132282	155
1	776	90.228151903489	156
1	781	90.38718589586	157
1	791	91.426391532441	158
1	794	91.539124271649	159
1	797	92.310177188474	160
1	800	92.435209778397	161
1	808	93.305375655926	162
1	811	93.533163472926	163
1	818	94.037443406177	164
1	821	94.239902169875	165
1	828	94.567188329413	166
1	836	95.06591853112	167
1	846	96.76067140019	168
1	849	97.228575779059	169
1	855	98.143987866341	170
1	860	98.544202037356	171
1	863	98.889721621065	172
1	869	99.270936732208	173
1	875	101.412484267164	174
1	878	101.94006134215	175
1	881	102.520894021378	176
1	884	102.851803902554	177
1	887	103.477890056627	178
1	890	103.54398206732	179
1	893	103.734684447511	180
1	896	104.208789816872	181
1	903	106.300346389495	182
1	906	107.528708230599	183
1	909	107.792285343434	184
1	921	109.55926736668	185
1	924	110.774486018907	186
1	927	110.792147829711	187
1	930	111.463920556755	188
1	931	111.5825349847	187
1	936	111.680016773349	188
1	939	111.693342018177	189
1	942	112.119877830213	190
1	945	112.2802119247	191
1	948	112.653579472693	192
1	954	113.304376815052	193
1	957	113.308433136373	194
1	963	114.150898262738	195
1	966	114.709905932729	196
1	980	115.779547825986	197
1	983	116.288161579574	198
1	986	116.300626647071	199
1	995	116.72161994512	200
1	998	117.130297882411	201
1	1004	117.575447221817	202
1	1007	117.761572358241	203
1	1028	119.268251113675	204
1	1040	120.829825639612	205
1	1046	121.961204407216	206
1	1049	122.242728429687	207
1	1052	122.538302481305	208
1	1055	122.788386144454	209
1	1059	123.604899094166	208
1	1070	124.947668321054	209
1	1073	125.594843025097	210
1	1076	125.654772915067	211
1	1077	126.157695326764	210
1	1082	126.264145897083	211
1	1085	126.268212004659	212
1	1088	127.413887284833	213
1	1091	127.457708255994	214
1	1094	127.747290623208	215
1	1100	127.947146161129	216
1	1103	128.005674060076	217
1	1106	129.199687430671	218
1	1109	129.489371745537	219
1	1115	130.707902662298	220
1	1118	130.904364548195	221
1	1121	130.97678365831	222
1	1124	130.986519067651	223
1	1127	130.991784539248	224
1	1130	131.13503756063	225
1	1131	132.180719180152	224
1	1139	132.645499161854	225
1	1149	133.212603057093	226
1	1152	133.901392646194	227
1	1155	133.944148396226	228
1	1158	134.267843938027	229
1	1167	135.450724379187	230
1	1170	136.98157279813	231
1	1178	137.472652767639	232
1	1181	137.794471159316	233
1	1184	138.119642029805	234
1	1190	138.257595261734	235
1	1193	138.416607278533	236
1	1198	138.590805995116	237
1	1201	138.616448146758	238
1	1204	138.729392816539	239
1	1207	138.826190288847	240
1	1210	139.481386256187	241
1	1213	139.568003250634	242
1	1216	141.179335249755	243
1	1219	141.240206719355	244
1	1222	141.338326241984	245
1	1228	141.893985155142	246
1	1243	143.096698938971	247
1	1246	143.275971523278	248
1	1253	143.7254300935	249
1	1256	144.094013033111	250
1	1259	144.10746810207	251
1	1270	144.807493738185	252
1	1273	144.970163695804	253
1	1279	145.827598798418	254
1	1282	145.999137425791	255
1	1291	147.841436310583	256
1	1294	147.940657837067	257
1	1302	150.882636416136	258
1	1307	151.926488668271	259
1	1315	153.179552911298	258
1	1323	153.875288779446	259
1	1326	154.314365765034	260
1	1329	154.755520575764	261
1	1332	154.771983859749	262
1	1335	154.976836126896	263
1	1338	155.489763118725	264
1	1339	156.14986465703	263
1	1348	156.99981991039	262
1	1353	158.138951380955	263
1	1356	158.235492659983	264
1	1359	158.2930855768	265
1	1362	158.383593046948	266
1	1372	158.654317437685	267
1	1384	160.03319576328	268
1	1387	160.28314657993	269
1	1390	160.423304501301	270
1	1393	160.563780218256	271
1	1396	160.575092651659	272
1	1399	160.575889463318	273
1	1402	160.697807658976	274
1	1416	164.357369777438	275
1	1423	165.375587356245	276
1	1437	166.51999937517	277
1	1440	166.796304568098	278
1	1443	167.882507879255	279
1	1453	168.164954591213	280
1	1456	168.716756712851	281
1	1459	169.525736407984	282
1	1462	169.864082526683	283
1	1465	169.923411208105	284
1	1468	170.459310003445	285
1	1471	170.906449906042	286
1	1474	171.090214738917	287
1	1481	172.670537298231	288
1	1484	172.935319571569	289
1	1487	173.363827175749	290
1	1488	173.493802827293	289
1	1493	173.680040884414	290
1	1496	174.160919108717	291
1	1499	175.051045464507	292
1	1502	175.355409052225	293
1	1505	175.484447555409	294
1	1511	176.020032527834	295
1	1514	176.692415429872	296
1	1526	177.811271770953	297
1	1529	178.913629613072	298
1	1532	179.034461009335	299
1	1538	180.031759933502	300
1	1543	180.2969028553	301
1	1549	180.508275754475	302
1	1555	180.765781010928	303
1	1558	180.954345735179	304
1	1566	181.550895652056	305
1	1569	181.64807116114	306
1	1572	181.98456050743	307
1	1579	182.795053654612	308
1	1582	182.988972885731	309
1	1585	183.590275855921	310
1	1588	183.72219822441	311
1	1591	183.747126320138	312
1	1594	183.908268898964	313
1	1597	184.019187691693	314
1	1603	185.249906542724	315
1	1612	186.196008283978	316
1	1615	186.398800119466	317
1	1621	186.73641098158	318
1	1630	189.476462987497	319
1	1640	190.2680720821	320
1	1643	190.567425085041	321
1	1646	190.810170522401	322
1	1649	190.90180726767	323
1	1662	192.191148154496	324
1	1665	192.476717074999	325
1	1668	193.181666396375	326
1	1671	193.553282151203	327
1	1679	194.020146494766	328
1	1682	194.047027114276	329
1	1685	194.621215578569	330
1	1688	195.021010851046	331
1	1694	195.214171329904	332
1	1708	197.53169739247	333
1	1711	198.246331579848	334
1	1714	198.435935753478	335
1	1717	198.735439990468	336
1	1720	199.191147571238	337
1	1738	201.424787422337	338
1	1744	201.630557607489	339
1	1750	202.994736929537	340
1	1753	203.525319739573	341
1	1756	203.550152947319	342
1	1762	204.059417986435	343
1	1768	204.533541394289	344
1	1771	204.757998992514	345
1	1774	205.087809867702	346
1	1777	205.096357886347	347
1	1787	207.124289256361	348
1	1794	207.781230777582	347
1	1804	207.985003963875	348
1	1807	207.987710838454	349
1	1810	208.565751725124	350
1	1816	209.029555303275	351
1	1822	210.824228417272	352
1	1825	211.92469694775	353
1	1828	211.945667791442	354
1	1833	212.505705603209	355
1	1841	213.101142520189	356
1	1844	213.203444301199	357
1	1847	213.551530895995	358
1	1850	213.786904473504	359
1	1853	214.285400863018	360
1	1856	214.38068534589	361
1	1859	214.639144594608	362
1	1862	214.970932209851	363
1	1865	215.16728858533	364
1	1868	215.94722423282	365
1	1875	216.809579901875	364
1	1880	216.91172399458	365
1	1885	217.347309032486	366
1	1888	217.69840711004	367
1	1891	218.175404860984	368
1	1894	218.319358000966	369
1	1897	218.448236647008	370
1	1900	218.956573650972	371
1	1903	219.295014783789	372
1	1912	219.462351489423	373
1	1915	219.589852170529	374
1	1918	219.654447065572	375
1	1921	220.082730938896	376
1	1927	220.439447191569	377
1	1933	221.307202334508	378
1	1939	221.898505120077	379
1	1942	222.693978655706	380
1	1945	222.768120480914	381
1	1951	223.177038010161	382
1	1954	223.625367316773	383
1	1962	223.833888892944	384
1	1967	224.477613698796	385
1	1970	224.681399081005	386
1	1973	225.25190506908	387
1	1976	225.459608355292	388
1	1979	226.044418710932	389
1	1982	226.715603954065	390
1	1985	226.784670902347	391
1	1988	226.787775259156	392
1	1991	227.102098136109	393
1	1994	227.697345964029	394
1	1997	227.702549096836	395
1	2003	228.149290391601	396
1	2006	228.546769471524	397
1	2018	229.687293946488	398
1	2024	230.203497401425	399
1	2027	230.47584862778	400
1	2030	231.198450865315	401
1	2033	231.216527919787	402
1	2036	231.657202167961	403
1	2039	231.826290092645	404
1	2042	232.068902745834	405
1	2045	232.212126017315	406
1	2048	232.313941659292	407
1	2056	232.734609331692	408
1	2059	233.250056881699	409
1	2062	233.288345679471	410
1	2067	235.349441433874	411
1	2070	235.943907450572	412
1	2078	237.463789283699	413
1	2081	238.718662072152	414
1	2084	239.140724016691	415
1	2090	241.346124820493	416
1	2093	241.466583088262	417
1	2104	242.457810550192	418
1	2107	242.479737930882	419
1	2110	242.627369814113	420
1	2113	242.929324817602	421
1	2116	243.319295093231	422
1	2125	244.478131841282	423
1	2133	244.977907974199	424
1	2136	245.353770639373	425
1	2148	247.724159844423	426
1	2151	247.884104057776	427
1	2157	248.735395247349	426
1	2160	248.808063484755	425
1	2165	249.039078591344	426
1	2168	249.133645327845	427
1	2171	249.453704932043	428
1	2172	249.636843169293	427
1	2177	249.935684141603	428
1	2180	250.099081127542	429
1	2183	250.120840195089	430
1	2186	250.181158218867	431
1	2190	250.459388210999	430
1	2195	250.817208689991	431
1	2201	251.427962864856	432
1	2204	252.062204417099	433
1	2210	252.207976791962	434
1	2216	252.869056592792	435
1	2225	254.847099367542	436
1	2228	255.009599907411	437
1	2231	255.269789155609	438
1	2232	255.752359614786	437
1	2237	256.26054856807	438
1	2240	256.282767220089	439
1	2246	256.752375252218	440
1	2252	257.37273253197	441
1	2255	257.734160157818	442
1	2258	258.432377475179	443
1	2265	259.030037974317	444
1	2268	259.202239410993	445
1	2271	259.549291699198	446
1	2274	259.722061355873	447
1	2277	259.752469349637	448
1	2278	259.878730547577	447
1	2283	259.936489166439	448
1	2286	260.693343483665	449
1	2289	260.782429441156	450
1	2290	260.820693048388	449
1	2293	261.064363692223	448
1	2301	261.878079311405	449
1	2309	263.289854641326	450
1	2312	263.291062943204	451
1	2319	265.243452868242	452
1	2325	266.498017177934	453
1	2332	268.384132284775	454
1	2335	269.658983737325	455
1	2344	270.662508125224	456
1	2350	270.992233679424	457
1	2359	271.218939545602	458
1	2362	271.470814330296	459
1	2369	271.894366391755	460
1	2372	271.932040107903	461
1	2375	272.541599288747	462
1	2378	272.708089482666	463
1	2381	272.930728334701	464
1	2384	273.379180465803	465
1	2390	273.928018657106	466
1	2393	274.130452839473	467
1	2396	275.448894564739	468
1	2399	275.5208421667	469
1	2408	277.810622561358	470
1	2411	278.06909614162	471
1	2414	279.170492219927	472
1	2417	279.38457441459	473
1	2420	279.859360554931	474
1	2428	280.726101625597	475
1	2434	281.198330374241	476
1	2437	281.88673239713	477
1	2440	281.999239057102	478
1	2443	282.02818450212	479
1	2446	282.223027829238	480
1	2452	282.749843249811	481
1	2461	283.51863932304	482
1	2464	284.235162107639	483
1	2467	284.239029930826	484
1	2484	285.384736966231	485
1	2487	286.322745081839	486
1	2490	286.720806086827	487
1	2491	286.965399627208	486
1	2498	287.049880723532	487
1	2501	287.847279199367	488
1	2504	288.343796103897	489
1	2507	289.07935285884	490
1	2520	290.518304172875	491
1	2526	290.616903673074	492
1	2529	290.999971740159	493
1	2532	291.489063350518	494
1	2535	292.102481416642	495
1	2538	292.690525228319	496
1	2541	292.957390132399	497
1	2544	293.1001523884	498
1	2551	295.083320702342	499
1	2557	295.556114247053	500
1	2560	295.623411214257	501
1	2563	296.001061429584	502
1	2566	296.263816839524	503
1	2569	296.780110503956	504
1	2572	297.037888882206	505
1	2580	298.263069868334	506
1	2583	298.410612888037	507
1	2586	298.866548660763	508
1	2589	299.091748166136	509
1	2603	300.951154738555	510
1	2604	301.627298820047	509
1	2609	302.22298545043	510
1	2614	302.502471961715	509
1	2619	302.655086342973	510
1	2623	303.137105350568	509
1	2628	303.214761678624	510
1	2634	304.054595180009	511
1	2650	307.126813890243	512
1	2653	307.624060360085	513
1	2656	307.901367889015	514
1	2665	308.666325442023	515
1	2668	308.850054951204	516
1	2671	309.374815395278	517
1	2674	309.687157861076	518
1	2677	309.848676974273	519
1	2680	311.083230844054	520
1	2683	311.344552381744	521
1	2686	311.778318571251	522
1	2692	314.056628314059	523
1	2695	314.169627982943	524
1	2700	314.523500491521	525
1	2703	315.133934034562	526
1	2709	315.272953285643	527
1	2712	315.357827009454	528
1	2715	315.488333302106	529
1	2718	315.746460575685	530
1	2721	316.20473513874	531
1	2724	316.433351292718	532
1	2730	317.566739553014	533
1	2736	317.723089582408	534
1	2739	317.750713496644	535
1	2742	318.03006696495	536
1	2745	318.122454483705	537
1	2748	318.178971525456	538
1	2754	319.215385561025	539
1	2760	319.634144913281	540
1	2761	320.160823381612	539
1	2766	320.722761086335	540
1	2781	322.402235527082	541
1	2784	322.473579478704	542
1	2793	323.130258410076	543
1	2799	323.88051002398	544
1	2808	324.984956828965	545
1	2811	325.482143222814	546
1	2814	325.873660856577	547
1	2817	326.72951007802	548
1	2823	327.277378771995	549
1	2826	327.75013361365	550
1	2829	328.002302208303	551
1	2835	329.344129533158	552
1	2848	329.948898903316	553
1	2854	330.609613996734	554
1	2857	330.680006110257	555
1	2864	331.054332451689	556
1	2871	332.237671975047	557
1	2878	333.446486278312	558
1	2881	333.743433337093	559
1	2888	335.5398559275	560
1	2889	335.771989809361	559
1	2894	335.81139565225	560
1	2904	337.045475678989	561
1	2907	337.273722302187	562
1	2908	337.434132637823	561
1	2913	337.832105553344	562
1	2916	338.274255725273	563
1	2922	338.865304415265	564
1	2925	338.912410252753	565
1	2928	339.122827155987	566
1	2934	339.858620482999	567
1	2935	339.943529927754	566
1	2940	340.739015861694	567
1	2943	341.369025301687	568
1	2946	341.892779625061	569
1	2954	342.475378366648	570
1	2957	342.627954514788	571
1	2963	344.637463131489	572
1	2966	344.683752637407	573
1	2969	345.077235034375	574
1	2976	345.209847002771	575
1	2979	345.298761365116	576
1	2982	345.764230670282	577
1	2985	345.901572273121	578
1	2988	347.341963878128	579
1	2991	347.715183606483	580
1	2997	348.462313713232	581
1	3008	348.890318863692	582
1	3013	349.909950655268	583
1	3020	350.978009126824	584
1	3023	351.385186307362	585
1	3029	351.70119266845	586
1	3037	352.803327157084	585
1	3040	353.624867902544	584
1	3045	354.002446034481	585
1	3051	355.993661674976	586
1	3054	356.354279120342	587
1	3061	356.720113959481	588
1	3064	356.856910219241	589
1	3067	357.573504645701	590
1	3068	357.581631122306	589
1	3076	358.39397221362	590
1	3079	358.446498303978	591
1	3082	358.556401079167	592
1	3085	359.509454505344	593
1	3091	359.756408872917	594
1	3094	359.795729122846	595
1	3097	360.824856997903	596
1	3100	361.0693138905	597
1	3106	361.27901932115	598
1	3112	361.694165715638	599
1	3115	361.799229548539	600
1	3121	362.444709319564	601
1	3130	363.403902112565	602
1	3133	363.804778326211	603
1	3134	364.317939039218	602
1	3139	365.426944885159	603
1	3143	365.543221544072	602
1	3148	365.913390337763	603
1	3155	367.136580078314	604
1	3158	367.418201376497	605
1	3161	367.508861861452	606
1	3162	367.79431722317	605
1	3167	367.918301174121	606
1	3170	368.686273300352	607
1	3173	369.50064182441	608
1	3176	369.884713396107	609
1	3179	369.910656336334	610
1	3189	372.132403538833	611
1	3192	372.364708902982	612
1	3195	373.458228280128	613
1	3198	373.557272981347	614
1	3201	374.483809891884	615
1	3207	374.860205227127	616
1	3214	375.168228833447	617
1	3220	375.782509112064	618
1	3223	375.835434269561	619
1	3232	377.236020406281	620
1	3235	377.307712624334	621
1	3236	378.333329589846	620
1	3246	379.421110908618	621
1	3249	379.596891216488	622
1	3256	380.184096587786	623
1	3265	382.509168343354	624
1	3268	382.852008069214	625
1	3271	382.930275517762	626
1	3280	385.460585248573	627
1	3283	385.762114333147	628
1	3289	386.581218876533	629
1	3292	386.747727354384	630
1	3295	387.195475629142	631
1	3298	387.785340036648	632
1	3301	388.188044746988	633
1	3307	388.722140734954	634
1	3310	388.754721388539	635
1	3313	388.817655870402	636
1	3316	388.892161984789	637
1	3317	389.084645667001	636
1	3328	390.710247199472	637
1	3331	390.907558091381	638
1	3334	391.167166671058	639
1	3335	391.206032350719	638
1	3348	393.497535832157	639
1	3351	394.73117910976	640
1	3354	394.776150777698	641
1	3360	395.560976957485	642
1	3366	395.846253803796	643
1	3369	396.892434625737	644
1	3376	397.765473677458	645
1	3380	398.485080783759	644
1	3383	398.656579101791	643
1	3391	398.91834244402	644
1	3394	399.244986472195	645
1	3397	399.524274374207	646
1	3400	399.590626055684	647
1	3403	400.412558476365	648
1	3406	400.681529004707	649
1	3409	400.989965618104	650
1	3415	402.010568102758	651
1	3421	403.51689076502	652
1	3424	404.617385734681	653
1	3427	404.627864111382	654
1	3433	405.030093716841	655
1	3439	405.752665532385	656
1	3442	405.828201993294	657
1	3445	406.707159622359	658
1	3448	406.862373232062	659
1	3451	406.996458950529	660
1	3454	407.336558533674	661
1	3464	408.369902239864	660
1	3469	408.804980819186	661
1	3472	409.572424742223	662
1	3473	409.608701957504	661
1	3478	409.877301970847	662
1	3481	410.175238646601	663
1	3484	410.199810792376	664
1	3490	410.762133217343	665
1	3497	411.177578700302	666
1	3500	411.440652765825	667
1	3506	411.523115515862	668
1	3509	411.578952975517	669
1	3512	412.112976316242	670
1	3513	412.805770331181	669
1	3518	413.24321715517	670
1	3521	413.508189290888	671
1	3527	413.949641074979	672
1	3533	415.446675104499	673
1	3540	416.02197126785	674
1	3543	416.027295466253	675
1	3546	416.038715552797	676
1	3552	416.754244154043	677
1	3555	416.754562000116	678
1	3558	416.806670172895	679
1	3559	417.683657512987	678
1	3576	418.765684293372	679
1	3579	418.794065242151	680
1	3582	418.999182217663	681
1	3583	419.019402236109	680
1	3586	420.117015639991	679
1	3591	420.121840312311	680
1	3594	420.629318476317	681
1	3595	421.050968513248	680
1	3600	421.261693021453	681
1	3603	422.056639840988	682
1	3606	422.281853082811	683
1	3609	422.789215738886	684
1	3612	422.792022083364	685
1	3615	422.943958941972	686
1	3628	426.365495688137	687
1	3631	426.430920641571	688
1	3635	427.755353269486	687
1	3643	428.876041483271	688
1	3655	429.967044898029	689
1	3662	430.349620772096	690
1	3663	431.297514503338	689
1	3666	432.312921290859	688
1	3671	432.488576026482	689
1	3674	432.929121806643	690
1	3677	433.238755032413	691
1	3680	433.463023452566	692
1	3683	433.64162249563	693
1	3686	434.885991035447	694
1	3689	435.735889943176	695
1	3701	437.888492762816	696
1	3704	438.501743284338	697
1	3705	438.824856089593	696
1	3710	439.165390959571	697
1	3713	439.716322934128	698
1	3716	439.851124916873	699
1	3719	440.029873970313	700
1	3725	440.464008850492	701
1	3728	440.612149301465	702
1	3731	440.647942359882	703
1	3734	441.202283979411	704
1	3743	442.897085403957	705
1	3749	443.296273567399	706
1	3752	443.520788079484	707
1	3755	443.598636285117	708
1	3758	444.00144564369	709
1	3764	444.049957870695	710
1	3767	444.18694766225	711
1	3770	445.062079247825	712
1	3773	445.064146013668	713
1	3776	445.285929663001	714
1	3779	445.737315424517	715
1	3782	446.138450774076	716
1	3788	447.15564006682	717
1	3794	447.452386852611	718
1	3797	448.412298307049	719
1	3803	448.812255347462	720
1	3806	448.926730076854	721
1	3812	449.424835178548	722
1	3818	450.111102336069	723
1	3821	450.219184643351	724
1	3824	450.325467192903	725
1	3827	450.649328900255	726
1	3830	450.725065574115	727
1	3833	451.155691080211	728
1	3839	451.355243074099	729
1	3845	451.80698528028	730
1	3848	452.069092248814	731
1	3851	452.381264082149	732
1	3854	452.382036102517	733
1	3868	453.991980800917	734
1	3871	453.997310015997	735
1	3874	454.059542233225	736
1	3879	455.495840264371	737
1	3882	455.622461042066	738
1	3894	456.471817985211	739
1	3897	456.527771383851	740
1	3905	457.099642148854	741
1	3906	457.120261485435	740
1	3911	457.364844874782	741
1	3914	457.383029999027	742
1	3917	457.856528419956	743
[...]
12	72018	18147.066754344325	16807.20275984
12	72036	18151.388093911778	16810.429546574
12	72044	18153.099190479431	17433.145222379
12	72060	18168.860427879031	17445.946830773
12	72122	18199.726816024333	18177.866461769
12	72137	18207.153136949312	16862.73891724
12	72141	18207.272538082607	16868.612887858
12	72177	18224.487764669218	16882.765246259
12	72188	18235.277941352008	17508.031527302
12	72192	18240.421003933627	16894.207025069
12	72203	18242.227571102802	17828.347405803
12	72235	18268.626838777261	18243.619186618
12	72379	18324.970225161675	17798.970690522
12	72432	18340.809640185977	16992.39958341
12	72456	18355.456697978878	17005.296666957
12	72469	18362.113936945926	17011.53822861
12	72547	18402.0875309318	17047.00568831
12	72554	18404.861096615035	17050.585625875
12	72610	18441.756618033236	17080.875411822
12	72626	18447.294173953901	17702.531415437
12	72673	18474.266880227466	18439.112402841
12	72709	18483.125423817872	17734.276352248
12	72739	18498.410732881132	17128.584655042
12	72759	18509.208618748614	17152.690046854
12	72773	18518.571110013675	17765.208762467
12	72801	18534.675787484569	17163.322003167
12	72823	18543.129294254674	18508.670050044
12	72851	18558.352556405693	17205.892864936
12	72855	18558.37555764006	17185.623274156
12	72897	18583.401357951017	17211.42879586
12	72903	18583.746183041689	17207.154361237
12	72910	18588.3930435015	16071.577807411
12	72939	18604.852682421413	17227.976307869
12	72960	18615.860644229241	18586.225525298
12	72994	18641.35662354911	16103.377001634
12	72998	18644.663185664226	17266.423388012
12	73019	18651.538361045642	16097.703402126
12	73036	18659.481390863512	17280.256741293
12	73080	18677.493063445175	17297.173431552
12	73101	18702.205996609327	16130.960986699
12	73105	18705.710943226647	17324.125636135
12	73122	18722.529485927636	18565.692483183
12	73152	18742.269138531058	17359.858497191
12	73191	18764.223895527832	17380.958400376
12	73195	18765.640098042813	17382.589152
12	73199	18766.111279142162	17381.146782986
12	73213	18769.166890963417	16187.239981861
12	73251	18791.964573853786	18019.262082072
12	73255	18792.213188787716	17408.382733409
12	73266	18796.207808499682	16185.51169766
12	73297	18809.8299563426	17422.904515525
12	73318	18817.103070672537	17428.266052176
12	73324	18820.182808933414	17437.15588873
12	73332	18825.479665422416	18044.574161388
12	73344	18826.596503077855	18255.1184989
12	73360	18834.69676324521	18246.097646091
12	73381	18842.718183774864	17453.189977232
12	73385	18846.288877006709	17456.367144127
12	73393	18855.150675740366	17465.107560182
12	73397	18856.628863373586	18252.854722082
12	73437	18889.839901604313	18766.486580792
12	73441	18890.008362899831	17498.825051073
12	73453	18895.297431396663	17502.428774456
12	73465	18907.209508237757	17515.821877586
12	73469	18909.740294537569	17516.716827144
12	73499	18918.434479535076	17525.409150559
12	73534	18936.572317060971	17541.289867002
12	73548	18941.732860675282	17546.226603066
12	73565	18947.473438023979	17551.407439133
12	73573	18952.256309581815	17556.603265765
12	73604	18967.028301679165	16313.786075605
12	73608	18968.164402717709	17570.654202102
12	73625	18977.33834597146	18344.972544645
12	73637	18986.680894215015	18354.041842548
12	73661	18999.741279135714	16334.418322391
12	73665	18999.806537666602	17599.660840302
12	73704	19023.038841101452	17621.391894399
12	73711	19027.429725662628	17623.500268823
12	73751	19051.877166479513	17652.28062308
12	73755	19052.697502319391	18900.177932054
12	73814	19074.354271729728	17664.414240222
12	73818	19075.617397271601	17665.776197636
12	73831	19079.474295029105	16400.740882
12	73840	19081.076450705865	18289.863586074
12	73851	19087.079612918573	17681.839092026
12	73855	19087.992724293736	16369.983260839
12	73895	19105.147179384973	18307.955732728
12	73913	19114.322796600118	18312.735936839
12	73940	19121.339626735636	16310.903521593
12	74000	19161.283572571602	17748.54252067
12	74047	19176.808560827987	17764.508879796
12	74051	19178.371422642865	17764.197973746
12	74114	19211.41844501629	16364.670520647
12	74121	19212.64160934107	17798.399857252
12	74128	19213.275491654942	17800.645096787
12	74132	19214.139849570589	17814.494217936
12	74144	19217.705672259651	17802.604126075
12	74161	19226.01815854669	16374.142680941
12	74187	19238.731021509555	17823.556360237
12	74218	19248.32553382593	16366.208435447
12	74222	19250.430036033098	16363.972800749
12	74277	19276.865066818596	17859.078875623
12	74286	19281.469181781847	17864.434565925
12	74290	19283.355130807628	17865.444586234
12	74307	19291.809447277859	19245.513394851
12	74323	19294.438371430678	18462.767940465
12	74374	19324.438962550807	18634.500929696
12	74378	19325.404816148381	17903.62638142
12	74432	19340.907040862836	16386.079357432
12	74436	19344.408291889487	18508.999688991
12	74472	19361.484674391899	17937.787664218
12	74480	19364.689615897445	17940.220645097
12	74490	19373.206336416711	18530.582850621
12	74504	19376.209247908353	16373.969502267
12	74528	19388.398110029378	17962.573052145
12	74549	19401.679922834265	18553.412024185
12	74576	19410.313424682317	18555.03661482
12	74603	19431.099263995559	18009.476058765
12	74643	19444.57938640256	18730.623414633
12	74647	19445.575650042414	16405.532083062
12	74657	19453.534807800037	18033.408541598
12	74691	19468.313173082132	18038.549562279
12	74716	19478.271328881967	18046.840378991
12	74739	19483.242168450773	18052.902618078
12	74755	19497.174546372366	18063.04117562
12	74761	19498.985775360277	18775.855048585
12	74768	19502.99334781383	18639.282581577
12	74789	19516.793608375226	18081.816832134
12	74811	19525.243524841097	18651.611587303
12	74854	19551.362588690961	18677.015753075
12	74871	19562.954654559671	18127.183739591
12	74880	19565.523059742498	18129.348951246
12	74898	19575.947553284944	16501.311313123
12	74902	19579.675382150071	16490.729194151
12	74906	19580.353236812555	18701.406211786
12	74915	19584.134402066838	16492.740382545
12	74946	19596.797181950455	18708.321197172
12	74953	19604.335268291493	18167.515164865
12	74957	19608.033188283846	18170.308274072
12	74966	19610.129684274535	18176.66337078
12	74970	19610.823424215656	18174.695104958
12	74987	19628.85526206708	18900.34316097
12	74999	19633.520443641215	18193.992104287
12	75010	19642.623631021985	18202.019516887
12	75041	19663.914059997971	18221.892172717
12	75051	19667.022868500446	16507.149037747
12	75093	19691.920513866896	18247.675948634
12	75105	19696.812729015134	18252.310079081
12	75111	19700.637394739415	18258.322504732
12	75118	19701.961023218612	18256.909315642
12	75171	19728.634892683736	18282.601014621
12	75178	19730.553059940968	18284.578991673
12	75189	19732.32049934284	18284.893585666
12	75228	19746.034908756167	18298.198992053
12	75235	19749.432745138564	18296.94619318
12	75321	19790.172467886499	18335.13387059
12	75345	19801.492683162213	18345.99830428
12	75383	19819.790719153727	19767.592291727
12	75399	19825.735828802778	19774.008632808
12	75435	19841.895588019422	18929.352597316
12	75439	19842.249113283413	18386.672665971
12	75503	19891.457869670013	18976.638768276
12	75535	19912.407149113627	19161.034988823
12	75542	19915.411124421084	19853.068405296
12	75553	19919.351272918198	19167.685696639
12	75630	19943.566683076866	18483.773836662
12	75649	19961.519482113071	18499.972936419
12	75672	19969.461677698613	18506.777128164
12	75730	20001.828261489407	19228.9586014
12	75764	20018.558666168332	18552.219120526
12	75771	20020.857101572615	19700.125852621
12	75775	20023.359086931116	18556.404167321
12	75807	20037.877149114191	19971.6725089
12	75811	20039.628350083387	19971.448968387
12	75832	20053.394935151296	20042.5338095
12	75842	20055.290879788796	18587.868764296
12	75870	20079.494068557059	18611.985569207
12	75939	20108.462524083976	18636.006066484
12	75969	20115.441094523952	19337.139595126
12	76061	20146.611617927339	18665.017190111
12	76082	20154.539171300194	18669.887184467
12	76097	20157.965416019093	19220.028191591
12	76113	20170.683845259526	18701.10280568
12	76142	20193.946245956719	18725.076363345
12	76149	20195.661955988529	18708.991253801
12	76160	20203.120511277827	18716.61891901
12	76167	20206.656957701019	18732.760999616
12	76176	20211.763056456685	18724.847933009
12	76187	20217.375551819714	18750.219605457
12	76249	20244.087830749344	20206.812188594
12	76287	20262.312473902227	18775.475111283
12	76318	20274.240203625686	18785.842574663
12	76343	20278.303043553515	20076.717772024
12	76405	20329.015628705822	18831.563943005
12	76415	20332.98287793932	20089.465851078
12	76427	20340.000497989828	20178.46101583
12	76443	20343.32244244692	20177.142680291
12	76464	20349.704397949196	19398.59608468
12	76492	20356.051311715365	19391.626650179
12	76511	20364.942468904255	19550.842231417
12	76519	20365.598097892433	19525.833884937
12	76526	20367.215037861333	20110.925853518
12	76549	20383.95960549228	19512.793960918
12	76558	20385.957157200667	20311.20790152
12	76602	20402.981371803599	20326.369548975
12	76620	20405.812304770605	18906.22575016
12	76690	20439.213561339011	20349.815125872
12	76733	20453.928721269932	19478.891281973
12	76744	20455.701343752576	18955.199871824
12	76772	20471.872016526222	20205.812853525
12	76782	20481.083273462849	20397.198474125
12	76796	20487.753796509257	20185.061464074
12	76821	20504.209619216207	19001.640705635
12	76856	20527.048913868628	19542.047017509
12	76867	20532.234273401199	19026.341390406
12	76880	20534.775537456976	20450.257853502
12	76895	20537.830606706597	19031.249819844
12	76932	20556.770032322038	19049.289317047
12	76963	20570.193965359359	20485.283708376
12	76978	20577.825958937969	19568.550562373
12	77012	20592.669587034265	20506.471791549
12	77028	20598.462443402348	20467.327405842
12	77048	20604.156568513771	20465.330378225
12	77052	20605.382495338765	20465.814492088
12	77059	20606.128873085029	20458.188215248
12	77096	20619.221566492758	20531.754223315
12	77136	20632.862610665065	20477.885774538
12	77172	20648.39142643849	20212.01949572
12	77198	20665.233332083851	19653.327732825
12	77214	20669.776092707089	19154.975040285
12	77259	20694.345285418095	19178.379935415
12	77279	20716.678771131656	19205.069128955
12	77283	20717.104754591213	19707.522555288
12	77294	20724.883692203441	19709.456483773
12	77317	20732.718269970599	20552.686510037
12	77324	20733.834936785385	19218.115258933
12	77359	20750.821216604967	19718.876366046
12	77374	20756.880025323101	20300.535813951
12	77391	20766.365879727492	20481.930129108
12	77439	20798.552816879963	19277.039938192
12	77460	20802.985746457214	19278.988749605
12	77467	20804.338474442526	19280.055033275
12	77495	20813.979559179285	19755.873667795
12	77504	20820.421192891481	19295.2667509
12	77517	20836.779194214841	19311.150913514
12	77573	20852.522193925925	19769.966393523
12	77603	20889.194597331697	19360.198168618
12	77611	20891.122876217561	19362.970196914
12	77656	20917.710007978109	20824.404632322
12	77660	20919.689416632593	19389.505270897
12	77729	20947.04644704835	19414.931908596
12	77735	20948.982135849173	19414.886795514
12	77771	20965.280568829212	19434.500413019
12	77812	20996.726274047966	19950.818547836
12	77819	20999.629931649067	19464.48359713
12	77836	21011.604970195769	19473.065483211
12	77840	21012.276263309772	19477.099236389
12	77844	21015.596246660719	19476.359933075
12	77873	21040.128100291882	19497.087154253
12	77973	21094.413897492218	19559.30548401
12	77977	21095.750497096838	19548.65665139
12	77984	21105.416330928192	19558.194761042
12	78013	21131.711220234416	19581.728530952
12	78032	21147.212055991358	19597.803489463
12	78038	21158.321561648876	19607.78732298
12	78054	21165.992393835929	19630.957693394
12	78065	21169.959662511633	19624.442961276
12	78074	21171.034787802847	19625.03118965
12	78098	21177.222787635634	20119.08228097
12	78105	21182.596668425043	19631.820977612
12	78130	21189.812828375261	19639.399798871
12	78183	21209.207598918145	20985.582231601
12	78191	21218.533553951868	19684.261029626
12	78228	21229.88831009838	21133.127638698
12	78235	21230.665191866067	21133.436616087
12	78239	21231.368731736405	19675.659511655
12	78269	21253.625374341446	21158.55945581
12	78285	21265.361598250492	19707.58067602
12	78292	21272.027018197348	20194.911220729
12	78296	21273.032364212804	19716.585905898
12	78317	21287.086524610651	20204.675057749
12	78324	21290.332977796535	19732.308975773
12	78332	21295.121206675721	21066.574437204
12	78354	21307.69498886481	21068.554264848
12	78375	21313.174351062039	21008.785560467
12	78393	21328.649947185715	19769.36332222
12	78402	21332.064921662377	21010.327533822
12	78414	21337.773162088672	21094.453866995
12	78441	21342.823704226526	19782.63064854
12	78488	21363.763254221511	21264.492317489
12	78496	21368.013953103359	21118.078268962
12	78514	21375.15348295611	21273.740998689
12	78552	21388.573101436549	20291.619754656
12	78564	21392.613580072811	19829.397852382
12	78574	21397.438100675047	21066.909284991
12	78593	21402.355079846484	21150.927116982
12	78620	21414.58247863262	21155.552440658
12	78626	21417.189810925554	21054.455465908
12	78635	21421.546134256224	21319.025240235
12	78646	21425.695865580289	21321.487075763
12	78650	21433.592775271426	20296.149339395
12	78703	21465.262552752728	19901.039153337
12	78710	21470.532352679359	19904.847395795
12	78762	21505.691572071907	20387.406838146
12	78798	21524.87497459134	19957.554507999
12	78841	21535.17132869026	19966.434292332
12	78876	21558.891193295541	21274.652163365
12	78896	21584.401022753981	20011.585305044
12	78905	21588.128222526132	21299.784426422
12	78917	21592.170905407427	20018.977087715
12	78924	21595.855537209072	20028.651949578
12	78940	21602.407219844189	21490.943299287
12	78947	21602.518503376672	20026.545929606
12	79001	21628.527694557119	20049.650208436
12	79008	21635.060465675004	20507.22993377
12	79012	21635.691881572102	21529.391535183
12	79048	21644.614032939686	21343.662878201
12	79099	21668.430769304233	21007.721971728
12	79122	21673.575007563524	20092.358277775
12	79154	21692.279337777671	20117.28560695
12	79158	21693.085655602297	20557.070198805
12	79264	21743.180136621722	20160.224707924
12	79293	21754.981104669965	20170.97473394
12	79306	21758.713607095175	21088.436023554
12	79366	21795.563484905248	20206.725731945
12	79384	21803.334423902017	20212.861706946
12	79402	21818.803089920251	20229.287587081
12	79410	21822.044842532029	21483.179538117
12	79420	21837.211822951169	20248.059012679
12	79424	21838.792287297467	21037.233306434
12	79431	21840.732069038688	20247.940055687
12	79471	21850.41092331529	21736.260025053
12	79490	21858.787814184079	20264.867385862
12	79496	21864.587397489156	21519.288636124
12	79507	21867.425187497327	21521.660956827
12	79511	21868.332989617052	21511.978710497
12	79665	21959.130457774687	20795.998176863
12	79714	21986.224396158091	20385.775861733
12	79718	21987.069189664111	20385.535444878
12	79745	22009.687842585191	20410.208947626
12	79767	22018.700019691705	20417.130285404
12	79771	22019.52312970997	21631.737789673
12	79809	22037.057749399273	21648.303028011
12	79839	22045.26599207518	21645.675366019
12	79843	22048.157751234073	21643.540365499
12	79877	22080.74036254307	21966.03045661
12	79881	22083.075755750242	20912.014951557
12	79935	22114.244404380706	20508.779812204
12	79961	22123.910836178256	21707.883540712
12	79984	22143.281180451071	20535.904530342
12	79995	22150.97027291173	20542.90123292
12	80011	22157.554929222845	20549.736033369
12	80056	22188.38484725789	20579.601562741
12	80101	22206.185238809969	21772.722215357
12	80122	22220.42361813719	20608.06695218
12	80136	22229.063514021394	20616.494766603
12	80152	22239.50721687815	21804.621225843
12	80168	22248.589207963015	20641.53132936
12	80188	22261.916110717842	21853.857274896
12	80200	22270.039125510626	21854.833715574
12	80212	22277.944000949629	20663.175012925
12	80216	22280.57508761513	21168.714305906
12	80237	22289.707079872777	21103.609065836
12	80290	22318.393158359011	20701.473878697
12	80305	22321.95404373596	20702.764345786
12	80330	22329.408099264993	20708.951591248
12	80339	22333.369604607212	20714.16395355
12	80349	22338.844209319541	20718.030191159
12	80353	22341.017294796533	20720.507889094
12	80362	22347.378717889346	20725.813690415
12	80386	22359.0990298516	20737.292702541
12	80390	22360.288698368137	20737.359780949
12	80394	22361.57236998731	20738.472336082
12	80424	22377.556533931854	20753.560416561
12	80430	22378.150972016315	20753.808110875
12	80449	22388.016345814012	21941.87789504
12	80453	22388.212895436352	21199.361438571
12	80517	22436.527668364656	21266.022348522
12	80526	22440.854069695296	21226.912735573
12	80566	22472.913294959794	21268.099630124
12	80616	22490.752658658583	21284.95750611
12	80681	22518.775478127287	20886.993696451
12	80696	22523.667351803832	21305.271779971
12	80700	22523.826911557282	22030.222572907
12	80712	22528.966883205413	20898.42594107
12	80780	22552.385237361825	21293.408444702
12	80805	22566.745039524467	20933.034476434
12	80838	22580.909026769023	20946.972255854
12	80852	22583.122274790496	20948.747140143
12	80897	22603.295832675799	20966.145483584
12	80926	22617.494485024138	20978.939647293
12	80933	22619.87522589035	20980.365840986
12	80962	22626.638902133153	22115.806874611
12	80978	22630.371619629168	22119.431654032
12	81011	22643.180846194675	22128.166920145
12	81051	22677.45258784952	21034.812577891
12	81060	22685.504866260576	21041.568256604
12	81064	22687.713919076577	21041.888162282
12	81111	22705.63703932929	21058.790008503
12	81115	22706.374319126799	21071.839456376
12	81148	22725.650946849683	21076.294178132
12	81161	22732.537730876099	21095.358947573
12	81179	22744.058402413919	21500.923510826
12	81205	22778.298941198693	21138.617643302
12	81218	22785.049187988882	21143.629222062
12	81241	22802.029195153805	21149.441220495
12	81253	22808.981114883297	21162.065853761
12	81273	22812.195634620083	21169.188478524
12	81279	22815.608616008373	22272.261924806
12	81296	22821.186602844061	21167.542628368
12	81300	22822.213455060216	22275.709180424
12	81306	22824.817343510105	21487.837781967
12	81345	22841.772395438398	22719.811191031
12	81355	22850.857714751543	21196.028120081
12	81380	22862.650677141084	21204.951123028
12	81430	22882.7225879854	21633.678066084
12	81444	22885.459300891092	21225.381992525
12	81456	22892.689818092503	21230.763017961
12	81460	22892.939827817583	22332.696273946
12	81468	22893.599710782549	21642.386711353
12	81486	22901.952496504816	22336.662828222
12	81523	22916.523537175967	21253.60067898
12	81554	22929.651646933957	22804.703978613
12	81586	22947.663870345434	21288.366728135
12	81642	22966.598683765727	21694.481544971
12	81668	22978.667069470492	22548.805388065
12	81703	23005.473949683564	21338.220082214
12	81712	23010.762765480229	21733.813694342
12	81751	23028.186242331676	21363.25092848
12	81759	23028.968520279437	21369.584125357
12	81783	23042.698770296709	21761.947092322
12	81792	23046.806187119991	21377.333053711
12	81835	23075.625472032296	21403.931409582
12	81876	23094.104883299983	21424.643555843
12	81929	23110.621148668349	21435.541337398
12	81938	23117.066234369062	21440.549371758
12	81942	23118.101609497874	22494.860707109
12	81950	23120.74390438373	21832.560171426
12	81954	23121.826826340407	22994.079535717
12	81961	23127.411767548201	21695.42179533
12	82125	23207.857459205207	21528.574916901
12	82129	23209.701332777802	21536.08768165
12	82189	23223.740203376927	21540.743045917
12	82211	23232.331290747005	21548.478328282
12	82252	23248.774625050216	21563.290097292
12	82256	23249.690415688131	21564.219019364
12	82311	23273.961393906388	21580.926858323
12	82328	23286.075039575826	21592.538911266
12	82371	23301.367159607161	21604.389138635
12	82393	23313.664592312926	21499.684687584
12	82418	23330.358408770073	21665.560973412
12	82427	23331.024647850168	21633.078150505
12	82444	23338.86988150407	21640.08156245
12	82476	23349.321927051461	21650.140429951
12	82480	23351.124722386542	22026.242898643
12	82497	23358.296704728671	21674.648517926
12	82513	23364.10719158868	21663.464792283

