version 2
run General-0-20181113-17:52:24-21412
attr configname General
attr datetime 20181113-17:52:24
attr experiment General
attr inifile omnetpp.ini
attr iterationvars ""
attr iterationvarsf ""
attr measurement ""
attr network ER_Optimize_One
attr processid 21412
attr repetition 0
attr replication #0
attr resultdir results
attr runnumber 0
attr seedset 0
param **.source.interArrivalTime exponential(1.0s)
param **.source1.interArrivalTime exponential(1.0s)
param **.server.serviceTime exponential(0.5s)
param **.server1.serviceTime exponential(0.5s)
param **.server2.serviceTime exponential(9s)
param **.server3.serviceTime exponential(9s)
param **.source.numJobs 10000
param **.source.jobName "\"patient\""
param **.source1.numJobs 500
param **.source1.jobName "\"patient_a\""
param **.passiveQueue2.capacity 10
param **.passiveQueue3.capacity 10
param **.server4.serviceTime exponential(10s)
param **.server5.serviceTime exponential(9s)
param **.server6.serviceTime exponential(9s)
param **.server7.serviceTime exponential(9s)
param **.server8.serviceTime exponential(9s)
param **.server9.serviceTime exponential(9s)
param **.source.jobType 1
param **.source1.jobType 0

vector 0 ER_Optimize_One.passiveQueue2 queueLength:vector ETV
attr interpolationmode sample-hold
attr title "queue length, vector"
vector 1 ER_Optimize_One.passiveQueue3 queueLength:vector ETV
attr interpolationmode sample-hold
attr title "queue length, vector"
vector 2 ER_Optimize_One.sink lifeTime:vector ETV
attr interpolationmode none
attr title "lifetime of arrived jobs, vector"
attr unit s
0	0	0	0
0	349	34.26067800103	1
0	350	34.351877619794	0
0	1195	112.87941571997	1
0	1196	112.885719215423	0
0	1207	113.077383455304	1
0	1208	113.086488632895	0
0	1213	113.147001126378	1
0	1214	113.276707075861	0
0	1327	123.04185540109	1
0	1328	123.082196524226	0
0	2200	202.891171625494	1
0	2201	202.92114455981	0
0	2443	224.065536243542	1
0	2444	224.385633208817	0
0	2485	225.844525497449	1
0	2486	225.94003382438	0
0	2491	225.967240504766	1
0	2492	226.149314821157	0
0	2797	258.299023707938	1
0	2798	258.698004603805	0
0	2872	268.532182087049	1
0	2873	268.585293252762	0
0	2941	274.244638673292	1
0	2945	274.262948888137	0
0	2974	276.454814743097	1
0	2977	276.802307220715	0
0	3304	307.226276578791	1
0	3305	307.335237422702	0
0	3402	314.878719807803	1
0	3405	315.00212927931	2
0	3408	315.038828349591	3
0	3411	315.15135829597	4
0	3418	315.343453872119	5
0	3424	315.626526307966	6
0	3425	316.096301304353	5
0	3428	316.221856505539	4
0	3431	316.27465943069	3
0	3434	316.362114560738	2
0	3439	316.453852231569	3
0	3440	316.795992132208	2
0	3443	317.251565036243	1
0	3446	317.40597453204	0
0	3511	323.556591468998	1
0	3512	323.796255236784	0
0	3799	355.214116466054	1
0	3800	355.285932017288	0
0	3805	355.327289798446	1
0	3806	355.375478209544	0
0	4060	378.301954312393	1
0	4064	378.530316146577	0
0	4075	378.662469000211	1
0	4079	379.044346868036	0
0	4165	386.753796370612	1
0	4171	387.483918390868	2
0	4172	387.677545818839	1
0	4178	388.314971545114	0
0	4324	395.500366792038	1
0	4325	395.712998394475	0
0	4507	410.034127288527	1
0	4508	410.097460937366	0
0	4663	425.754204460851	1
0	4664	425.767437156674	0
0	4678	426.393169690418	1
0	4679	427.162872927156	0
0	5014	453.066216193901	1
0	5017	453.099021748624	2
0	5021	453.42311445741	1
0	5024	453.518060336141	0
0	5029	453.640494242288	1
0	5032	453.75389896448	2
0	5033	453.808919428942	1
0	5042	454.388967346872	0
0	5287	476.11146508732	1
0	5288	476.117868337697	0
0	5293	476.533868536723	1
0	5294	476.628076292589	0
0	5477	497.610980536516	1
0	5478	498.118099070374	0
0	5539	510.202082442219	1
0	5540	510.496621511339	0
0	5545	511.155135868396	1
0	5546	511.196791025978	0
0	5859	574.693780846657	1
0	5860	574.786626482631	0
0	5883	578.755116454664	1
0	5886	578.901712247214	2
0	5887	579.295519806083	1
0	5890	579.563440819031	0
0	5949	585.463417869042	1
0	5950	585.530884965293	0
0	5979	588.974345870764	1
0	5980	589.168799863234	0
0	6033	600.292752215909	1
0	6034	600.30057400346	0
0	6057	601.08151460769	1
0	6058	601.265343756633	0
0	6141	619.044399211656	1
0	6142	619.653749187995	0
0	6189	626.120243721468	1
0	6192	627.154414960236	2
0	6193	627.484579151226	1
0	6196	627.629228815311	0
0	6297	640.972574536133	1
0	6300	640.986536604388	2
0	6303	641.000137380376	3
0	6304	641.058446738322	2
0	6307	641.389031580384	1
0	6310	641.656043250746	0
0	6363	649.178917800248	1
0	6364	649.18968257762	0
0	6567	687.715834415668	1
0	6568	688.044705672339	0
0	6711	716.59844168554	1
0	6714	716.965416563422	2
0	6715	717.148505620446	1
0	6718	717.215090560836	0
0	6723	717.769677061241	1
0	6724	718.169715805809	0
0	6729	718.874037300974	1
0	6732	719.155443035337	2
0	6733	719.240830775681	1
0	6738	719.272563874394	2
0	6739	719.353088031723	1
0	6742	719.39201213454	0
0	6753	720.720388400419	1
0	6756	722.456258181246	2
0	6757	722.475894366935	1
0	6760	722.497819322734	0
0	6795	727.175482135505	1
0	6796	727.196541114296	0
0	6819	730.840436998181	1
0	6820	731.222219645162	0
0	6957	754.094899889103	1
0	6958	754.529874374944	0
0	7329	816.851179673434	1
0	7332	817.592183292254	2
0	7335	817.718444622791	3
0	7336	818.143611593849	2
0	7341	818.197441164865	3
0	7342	819.308172631935	2
0	7345	819.448406450666	1
0	7348	819.535991903246	0
0	7365	823.112492089109	1
0	7366	823.126846239748	0
0	7467	835.398588385824	1
0	7468	835.427414049029	0
0	7497	840.293183338807	1
0	7498	841.009380980248	0
0	7563	855.831515324864	1
0	7564	856.325580883542	0
0	7611	872.570030971945	1
0	7612	872.700559908321	0
0	7647	879.0720699603	1
0	7648	879.345133871412	0
0	7749	891.098047820636	1
0	7752	891.554511434662	2
0	7753	891.617795322282	1
0	7756	891.650908005638	0
0	7887	914.179390910999	1
0	7890	914.346133465463	2
0	7891	914.472827025303	1
0	7894	914.5327404508	0
0	7953	927.111480459209	1
0	7954	927.333770914583	0
0	7995	931.468162876697	1
0	7996	931.638847925212	0
0	8007	932.438201031813	1
0	8008	932.44417972601	0
0	8013	932.702578768984	1
0	8014	933.175108384311	0
0	8049	937.715823204864	1
0	8052	937.803756550169	2
0	8053	937.84973597385	1
0	8056	938.121976860162	0
0	8097	944.279318330519	1
0	8098	944.43983882004	0
0	8151	951.810469081755	1
0	8152	952.268954591573	0
0	8385	995.978601244091	1
0	8386	996.900320204604	0
0	8391	997.03262378123	1
0	8394	997.443726339663	2
0	8395	997.546806034574	1
0	8398	997.624553944216	0
0	8403	997.820007393113	1
0	8404	997.828072094224	0
0	8451	1005.424837458375	1
0	8454	1005.555794815268	2
0	8455	1005.64872171344	1
0	8460	1005.779175748658	2
0	8461	1005.903481350522	1
0	8464	1006.084268575357	0
0	8565	1031.042211618718	1
0	8566	1031.356637275872	0
0	8571	1032.285668748453	1
0	8572	1032.799652322322	0
0	8631	1042.570462619629	1
0	8632	1042.870118243613	0
0	8679	1049.164248302727	1
0	8680	1049.398756177866	0
0	8715	1052.641744825162	1
0	8716	1053.282049107664	0
0	8721	1053.359820266158	1
0	8724	1053.425773507393	2
0	8725	1053.440468007683	1
0	8728	1053.837227571677	0
0	8751	1057.759032995121	1
0	8752	1057.834202091015	0
0	8757	1058.096922421026	1
0	8760	1058.315882589418	2
0	8761	1058.731917606306	1
0	8764	1058.736389544373	0
0	8841	1074.739030826129	1
0	8842	1074.894450643951	0
0	8853	1075.405239133556	1
0	8856	1075.570989569317	2
0	8857	1075.599412871975	1
0	8860	1075.671234589647	0
0	8865	1075.722323656896	1
0	8868	1075.917044342699	2
0	8869	1075.926212850872	1
0	8872	1076.037709060477	0
0	9033	1108.690187913508	1
0	9034	1109.084758307406	0
0	9087	1119.794459423238	1
0	9088	1119.84187117675	0
0	9093	1120.13293185546	1
0	9094	1120.313369017619	0
0	9105	1120.857009192993	1
0	9106	1120.915673932852	0
0	9147	1126.792028125477	1
0	9148	1127.080267698325	0
0	9309	1154.962752713832	1
0	9310	1155.483893109786	0
0	9351	1164.136437190701	1
0	9352	1164.249154114925	0
0	9357	1164.365062928283	1
0	9358	1164.760764507971	0
0	9363	1164.842552853401	1
0	9364	1165.344180605201	0
0	9375	1165.549225894419	1
0	9376	1165.611184272108	0
0	9501	1184.231654508095	1
0	9502	1185.108597040749	0
0	9537	1188.01197580313	1
0	9538	1188.131372695614	0
0	9549	1189.254219806535	1
0	9550	1189.333278619769	0
0	9585	1192.067242034936	1
0	9586	1192.342448825304	0
0	9693	1207.419649673736	1
0	9694	1207.92824911327	0
0	9771	1219.078331165975	1
0	9772	1219.202966386249	0
0	9867	1236.285888367005	1
0	9868	1236.353930894781	0
0	10089	1285.098993114771	1
0	10092	1285.141176818856	2
0	10095	1285.17450188551	3
0	10098	1285.179260698816	4
0	10099	1285.293024265984	3
0	10104	1285.459182337933	4
0	10105	1285.513677999066	3
0	10108	1285.652565006066	2
0	10111	1285.75714354687	1
0	10116	1285.873326889616	2
0	10117	1285.91775908951	1
0	10120	1286.162417359387	0
0	10149	1289.298503466701	1
0	10150	1289.572696733962	0
0	10185	1292.684639331179	1
0	10186	1292.843987882425	0
0	10203	1294.439958591139	1
0	10204	1294.522050560567	0
0	10317	1312.090015095403	1
0	10318	1312.249151885144	0
0	10455	1333.263729727177	1
0	10456	1333.351812134554	0
0	10461	1333.578072311142	1
0	10462	1333.941464774848	0
0	10503	1337.807573295929	1
0	10504	1338.016782574678	0
0	10575	1344.624705804765	1
0	10578	1344.881123149924	2
0	10581	1344.969092726396	3
0	10582	1345.004243025948	2
0	10585	1345.142616272945	1
0	10588	1345.291914111749	0
0	10917	1421.0104441426	1
0	10920	1421.244445830389	2
0	10921	1421.552955108584	1
0	10926	1421.660877820167	2
0	10929	1421.825807919226	3
0	10930	1421.850427353328	2
0	10933	1421.974445644187	1
0	10938	1422.114318907372	2
0	10939	1422.616801482944	1
0	10942	1422.646922764422	0
0	10953	1423.817952482079	1
0	10956	1424.01354378109	2
0	10957	1424.353256168971	1
0	10960	1424.405147000379	0
0	11127	1452.63786725176	1
0	11128	1452.639973377266	0
0	11337	1487.08407858702	1
0	11338	1487.152548308993	0
0	11343	1487.203302633039	1
0	11346	1487.207170127364	2
0	11347	1487.5616142734	1
0	11350	1487.619751019174	0
0	11439	1504.106264802506	1
0	11442	1504.176959010056	2
0	11443	1504.328146174346	1
0	11446	1504.609050769624	0
0	11661	1543.187445926434	1
0	11662	1543.2118797314	0
0	11697	1546.352130878573	1
0	11698	1546.42815297735	0
0	11739	1553.376584002386	1
0	11740	1553.402481203795	0
0	11763	1556.304374808034	1
0	11764	1556.432243543414	0
0	11979	1598.694716376596	1
0	11982	1598.767382516845	2
0	11983	1598.852804450056	1
0	11986	1598.933955397727	0
0	12231	1635.537860492116	1
0	12232	1635.759795438207	0
0	12459	1673.147804332488	1
0	12462	1673.150566148894	2
0	12463	1673.271775103082	1
0	12466	1673.299157226095	0
0	12627	1698.37692341528	1
0	12628	1698.509213935057	0
0	12651	1701.021597267404	1
0	12652	1701.086851663848	0
0	12747	1712.481908574626	1
0	12748	1712.680651624192	0
0	12891	1741.311988596283	1
0	12892	1741.700836785722	0
0	12897	1741.785509311268	1
0	12898	1741.840085935688	0
0	12903	1742.256117911313	1
0	12904	1742.325402100146	0
0	13071	1776.953457599123	1
0	13074	1777.19125487836	2
0	13075	1777.305886378888	1
0	13078	1777.534761517908	0
0	13107	1781.068486246664	1
0	13108	1781.078445201042	0
0	13113	1781.192583147789	1
0	13116	1781.405065658422	2
0	13117	1781.465490441901	1
0	13120	1781.49254355028	0
0	13125	1781.526768052674	1
0	13126	1781.881050179495	0
0	13131	1782.165787074786	1
0	13132	1782.244716248353	0
0	13275	1805.81011232862	1
0	13276	1805.927295871608	0
0	13359	1816.697044689679	1
0	13360	1816.908276192596	0
0	13545	1861.008752538992	1
0	13546	1861.119566265209	0
0	13695	1894.651989989844	1
0	13696	1894.808151819357	0
0	13731	1902.802347232092	1
0	13732	1902.98374552098	0
0	13761	1908.733715587159	1
0	13762	1908.764388017576	0
0	13773	1909.241175018023	1
0	13774	1909.428058167617	0
0	13791	1912.789780083704	1
0	13792	1912.908609902271	0
0	13803	1913.428984778739	1
0	13804	1913.481975604318	0
0	13809	1913.724483019195	1
0	13810	1914.030273115584	0
0	13839	1917.670186392753	1
0	13840	1917.75221618589	0
0	14007	1946.810865323553	1
0	14008	1947.125835823169	0
0	14079	1962.428584833639	1
0	14080	1962.429858530034	0
0	14139	1972.527045915397	1
0	14140	1972.776598597066	0
0	14145	1973.070319666055	1
0	14146	1973.075391229336	0
0	14265	2000.15895365504	1
0	14268	2000.47712020225	2
0	14269	2000.512590502129	1
0	14272	2000.639669579123	0
0	14343	2010.437765832903	1
0	14344	2010.812814055266	0
0	14349	2010.897221068973	1
0	14350	2011.125344582046	0
0	14409	2022.824135147408	1
0	14410	2022.827191141222	0
0	14589	2047.786353313593	1
0	14590	2047.930119756487	0
0	14781	2089.886923623102	1
0	14782	2090.92928441095	0
0	14787	2090.976550796026	1
0	14790	2091.184328120112	2
0	14793	2091.201504632415	3
0	14794	2091.240571858431	2
0	14797	2091.418191846398	1
0	14800	2091.477960538933	0
0	14847	2099.864399890759	1
0	14850	2099.894185376573	2
0	14853	2100.210563989873	3
0	14854	2100.224658402874	2
0	14857	2100.276697935934	1
0	14860	2100.319538543977	0
0	14913	2106.006761545692	1
0	14914	2106.033267782712	0
0	14979	2121.107340514064	1
0	14980	2121.272004106216	0
0	14997	2122.051591684986	1
0	14998	2122.085426056931	0
0	15309	2169.811149131712	1
0	15310	2169.933652108911	0
0	15315	2170.273778835401	1
0	15316	2170.521209676572	0
0	15429	2189.67236710674	1
0	15430	2190.465001028954	0
0	15663	2229.589963166624	1
0	15664	2229.897624207981	0
0	15669	2229.93162348935	1
0	15672	2230.093243817194	2
0	15673	2230.306674502654	1
0	15676	2230.387589329845	0
0	15681	2230.494642812294	1
0	15682	2230.657082758236	0
0	15867	2261.854203256697	1
0	15868	2261.948271341177	0
0	15885	2262.861950624809	1
0	15886	2262.872925389084	0
0	15927	2273.42888020985	1
0	15928	2273.523063966986	0
0	15951	2278.735858179428	1
0	15952	2278.970817657561	0
0	16041	2289.447078671114	1
0	16042	2289.537618639176	0
0	16107	2300.865343656275	1
0	16110	2301.101218947601	2
0	16113	2301.328567111889	3
0	16116	2301.386589881541	4
0	16117	2301.461254481881	3
0	16120	2301.522502666111	2
0	16123	2302.207248306384	1
0	16126	2302.214909357361	0
0	16131	2302.230668975193	1
0	16132	2302.350491317696	0
0	16185	2311.571485594772	1
0	16186	2311.640644806507	0
0	16191	2311.667705954404	1
0	16192	2311.680244967272	0
0	16563	2387.203773516399	1
0	16564	2387.236652625021	0
0	16749	2419.438818773999	1
0	16750	2419.752796621804	0
0	17013	2470.414117926531	1
0	17014	2471.337748072094	0
0	17055	2476.326323862808	1
0	17056	2476.570178119823	0
0	17217	2503.307024704305	1
0	17218	2503.416994140693	0
0	17253	2507.784812501373	1
0	17254	2507.79636526704	0
0	17265	2508.171004390934	1
0	17266	2508.334113972791	0
0	17295	2510.940865726634	1
0	17296	2511.146011206732	0
0	17319	2513.1000973575	1
0	17320	2514.399007049662	0
0	17499	2551.922556728718	1
0	17500	2551.963653899619	0
0	17523	2557.783959982039	1
0	17526	2557.944419992863	2
0	17527	2558.182343609904	1
0	17530	2558.241352760305	0
0	17763	2601.111469358793	1
0	17764	2601.139957714909	0
0	17901	2620.095244928222	1
0	17902	2620.213967688959	0
0	17973	2633.198119156042	1
0	17974	2633.333473033002	0
0	18063	2647.327471643035	1
0	18064	2647.436537634647	0
0	18105	2652.280117990667	1
0	18108	2652.29857247932	2
0	18109	2652.61539426532	1
0	18114	2652.655292962045	2
0	18115	2652.688507654866	1
0	18118	2652.914552363393	0
0	18183	2664.318360120607	1
0	18184	2664.512398018806	0
0	18255	2676.102758028453	1
0	18256	2676.211349843682	0
0	18273	2681.595049633671	1
0	18274	2681.597804001689	0
0	18387	2710.795382423111	1
0	18388	2710.908326789623	0
0	18399	2711.185084241948	1
0	18402	2711.192928376134	2
0	18403	2711.397096441329	1
0	18406	2711.415196119774	0
0	18543	2735.960828514091	1
0	18546	2736.362663177534	2
0	18547	2736.478136150652	1
0	18550	2736.532030384944	0
0	18621	2747.307409805959	1
0	18622	2747.471678358606	0
0	18633	2747.951290974892	1
0	18634	2748.254503609416	0
0	18723	2756.94746295894	1
0	18726	2757.125366559371	2
0	18729	2757.188626624949	3
0	18730	2757.438234041969	2
0	18735	2757.588859830657	3
0	18736	2757.59077882823	2
0	18739	2757.863290113867	1
0	18742	2758.009797033432	0
0	18795	2770.090455429218	1
0	18796	2770.249938880773	0
0	18831	2777.19160320722	1
0	18832	2777.247210113009	0
0	18843	2777.834864271397	1
0	18844	2778.146432529846	0
0	18873	2782.309963332525	1
0	18874	2782.32630035373	0
0	18891	2784.000925672348	1
0	18892	2784.383847699745	0
0	18999	2802.477355778655	1
0	19000	2802.871759830144	0
0	19005	2802.976893067707	1
0	19006	2803.127209217683	0
0	19281	2849.342166165136	1
0	19282	2849.361238405593	0
0	19419	2875.004421435502	1
0	19420	2875.195418539697	0
0	19455	2878.963178329767	1
0	19456	2879.616227837134	0
0	19563	2894.878607223279	1
0	19564	2895.03296809963	0
0	19569	2895.04989561343	1
0	19572	2895.357862066733	2
0	19573	2895.463834640642	1
0	19576	2895.510446404986	0
0	19623	2906.248605323611	1
0	19624	2906.458031131396	0
0	19641	2907.857116095536	1
0	19642	2908.083120483819	0
0	20037	2976.917680046565	1
0	20040	2976.962465893853	2
0	20041	2977.329511302361	1
0	20046	2977.456081749888	2
0	20049	2977.803345246729	3
0	20050	2978.303740633027	2
0	20053	2978.467212613943	1
0	20056	2978.49388454373	0
0	20073	2980.68514586184	1
0	20076	2981.136865118389	2
0	20079	2981.488022064735	3
0	20080	2982.075049992258	2
0	20085	2982.276170258528	3
0	20086	2982.291572505726	2
0	20089	2982.650094279814	1
0	20094	2982.815675666396	2
0	20097	2982.82389665637	3
0	20098	2982.8413163994	2
0	20101	2982.937403303338	1
0	20104	2983.108615106452	0
0	20109	2983.150130241331	1
0	20112	2983.15620921975	2
0	20115	2983.186086364545	3
0	20116	2983.200740738142	2
0	20119	2983.2539636681	1
0	20122	2984.189312654421	0
0	20127	2984.21196124107	1
0	20128	2984.462234320898	0
0	20163	2988.819099420361	1
0	20166	2988.833282212593	2
0	20167	2988.888256037221	1
0	20170	2989.074180579197	0
0	20463	3045.397174419966	1
0	20466	3045.607682751998	2
0	20467	3046.004958172774	1
0	20470	3046.070763144439	0
0	20505	3049.155447047943	1
0	20508	3049.181094695128	2
0	20509	3049.339570052546	1
0	20514	3049.521509701079	2
0	20515	3049.559172237564	1
0	20518	3050.025847550583	0
0	20673	3071.88662981748	1
0	20674	3072.112536332341	0
0	20835	3106.768915102784	1
0	20836	3106.888270919004	0
0	20907	3118.761499942234	1
0	20908	3119.083747724203	0
0	21033	3147.907157434755	1
0	21034	3147.977678993573	0
0	21333	3190.586528906931	1
0	21334	3190.627467856121	0
0	21339	3190.904070887213	1
0	21340	3191.101921272852	0
0	21513	3224.012224364542	1
0	21514	3224.424624678701	0
0	21783	3270.486578067963	1
0	21784	3270.590519283878	0
0	21861	3285.937449281956	1
0	21862	3286.069350068675	0
0	21885	3289.727337157635	1
0	21886	3289.870638514584	0
0	21891	3289.93645656914	1
0	21892	3290.274240024732	0
0	21933	3296.743087040421	1
0	21934	3297.01821421637	0
0	22023	3311.36137301579	1
0	22024	3311.535874470316	0
0	22053	3316.230073301613	1
0	22054	3316.30413860618	0
0	22155	3328.056993049036	1
0	22158	3328.591721393052	2
0	22159	3329.014147814549	1
0	22164	3329.060917189048	2
0	22165	3329.417647164333	1
0	22168	3329.619243928199	0
0	22173	3329.678358298772	1
0	22174	3329.69776599347	0
0	22197	3332.860139802174	1
0	22198	3332.866589438284	0
0	22263	3347.342219114528	1
0	22264	3347.556257978256	0
0	22515	3389.773114456374	1
0	22518	3390.112131549427	2
0	22519	3390.452160508463	1
0	22524	3390.614962261724	2
0	22525	3390.686098067277	1
0	22528	3391.038816489251	0
0	22731	3433.421589372035	1
0	22732	3433.528873423056	0
0	22809	3450.184309537721	1
0	22810	3450.286657945942	0
0	22821	3451.097091427977	1
0	22822	3451.670335496659	0
0	22857	3456.414698175156	1
0	22858	3456.812395970993	0
0	22977	3473.916593933728	1
0	22978	3474.416334381212	0
0	23355	3534.132583850144	1
0	23356	3534.382459183751	0
0	23475	3557.365749159492	1
0	23476	3557.422830149783	0
0	23643	3586.13452918843	1
0	23644	3586.75623505312	0
0	23649	3586.792143717985	1
0	23650	3586.891127127545	0
0	23709	3591.60657906115	1
0	23710	3591.630419355924	0
0	23853	3620.747744399119	1
0	23854	3621.082310270684	0
0	24003	3652.337222437534	1
0	24004	3652.338068059208	0
0	24075	3662.02707735531	1
0	24076	3662.167875476585	0
0	24129	3670.316917377093	1
0	24130	3670.594523863814	0
0	24135	3670.927210852254	1
0	24136	3671.111073520923	0
0	24285	3693.314648054343	1
0	24286	3693.397020579157	0
0	24297	3694.454657022656	1
0	24298	3694.522122504821	0
0	24405	3720.858127924801	1
0	24406	3720.867222555916	0
0	24525	3738.263495983254	1
0	24526	3738.588915681299	0
0	24663	3760.060184853481	1
0	24664	3760.096327400434	0
0	24795	3784.2731581223	1
0	24796	3784.38391022176	0
0	24843	3788.980506881177	1
0	24846	3789.191211275519	2
0	24849	3789.206705596884	3
0	24850	3789.330995442241	2
0	24853	3789.937417874133	1
0	24856	3790.299048035974	0
0	24909	3797.276576634103	1
0	24910	3797.320550666949	0
0	25035	3817.564927840067	1
0	25036	3817.706530090505	0
0	25143	3842.780514357704	1
0	25144	3843.039252566705	0
0	25245	3855.628041701675	1
0	25248	3855.973815424044	2
0	25251	3856.158180334388	3
0	25252	3856.436364898893	2
0	25255	3856.587195287393	1
0	25258	3857.03523702048	0
0	25323	3864.19784394134	1
0	25324	3864.445501217744	0
0	25359	3869.883986791918	1
0	25360	3870.347185149222	0
0	25437	3883.112472933644	1
0	25440	3883.584750517701	2
0	25441	3883.822671857124	1
0	25446	3884.009899571969	2
0	25447	3884.028993092922	1
0	25450	3884.669388981415	0
0	25479	3886.548529612377	1
0	25480	3887.03138234395	0
0	25527	3896.254921471829	1
0	25528	3896.387283168451	0
0	25533	3896.426834464117	1
0	25534	3896.489240797057	0
0	25593	3907.407005070786	1
0	25594	3907.529388199127	0
0	25617	3910.507304428033	1
0	25618	3910.684116147318	0
0	26049	3986.147081570897	1
0	26050	3986.467230989785	0
0	26079	3992.198597718049	1
0	26080	3992.22061281213	0
0	26193	4009.048545012365	1
0	26194	4009.108510050703	0
0	26331	4028.631418592572	1
0	26334	4028.775046882661	2
0	26335	4028.775064202097	1
0	26338	4028.906450381659	0
0	26397	4042.740974846044	1
0	26398	4042.775715766098	0
0	26673	4088.766020622986	1
0	26674	4088.89324886506	0
0	26685	4090.257902227753	1
0	26686	4090.420136300764	0
0	26733	4103.54616343639	1
0	26736	4103.885485424895	2
0	26737	4104.276510211113	1
0	26740	4104.379332560469	0
0	26745	4104.719180186884	1
0	26746	4104.774018028479	0
0	26949	4134.979908719038	1
0	26950	4135.187242326867	0
0	27249	4189.427822508332	1
0	27250	4189.683377432278	0
0	27471	4226.572099465998	1
0	27472	4226.607347326727	0
0	27525	4235.12053686282	1
0	27526	4235.406203985812	0
0	27561	4240.502559149925	1
0	27562	4240.606882907236	0
0	27567	4240.610862165861	1
0	27568	4240.624832755125	0
0	27687	4257.162207237643	1
0	27690	4257.282728193898	2
0	27693	4257.306906491553	3
0	27694	4257.423273900041	2
0	27697	4257.455800295673	1
0	27700	4257.79709201161	0
0	27777	4276.888521976858	1
0	27778	4277.130445583933	0
0	27783	4277.25001576517	1
0	27786	4277.25311217952	2
0	27787	4277.88030595438	1
0	27790	4277.887194473009	0
0	27795	4278.005227231148	1
0	27796	4278.372359798026	0
0	27849	4284.23700722437	1
0	27852	4284.281835972047	2
0	27853	4284.321879898753	1
0	27858	4284.456511347519	2
0	27861	4284.870468868448	3
0	27862	4285.142500509208	2
0	27865	4285.458893961868	1
0	27868	4285.502561730175	0
0	27891	4289.286551458761	1
0	27892	4289.310127595018	0
0	28125	4333.374494203219	1
0	28126	4333.479289885573	0
0	28185	4344.37451549863	1
0	28188	4344.440731026461	2
0	28189	4344.491128248601	1
0	28194	4344.507067836292	2
0	28195	4344.920199900679	1
0	28198	4345.076772682665	0
0	28209	4346.156969934018	1
0	28210	4346.290703363721	0
0	28317	4360.163536608756	1
0	28318	4360.176142505741	0
0	28503	4388.560091811028	1
0	28504	4388.662564156429	0
0	28605	4405.227187578649	1
0	28606	4405.24759558612	0
0	28647	4409.32016648415	1
0	28648	4409.650287330962	0
0	28653	4409.677377305044	1
0	28654	4409.689014156497	0
0	28725	4418.959199207399	1
0	28726	4419.088174255327	0
0	28809	4433.139375798379	1
0	28810	4433.167747896272	0
0	28851	4438.904969252514	1
0	28854	4439.126599842467	2
0	28855	4439.393370701242	1
0	28858	4439.465101068624	0
0	28863	4439.490032107713	1
0	28864	4439.526529526688	0
0	29007	4460.869332479083	1
0	29008	4460.891450258716	0
0	29031	4465.117516101112	1
0	29032	4465.122383879443	0
0	29037	4465.254582231682	1
0	29038	4465.262785243273	0
0	29259	4504.22381818726	1
0	29260	4504.58681541141	0
0	29265	4504.813209493984	1
0	29266	4505.057736926103	0
0	29289	4506.32214354989	1
0	29290	4506.790513740904	0
0	29301	4507.646310019571	1
0	29302	4508.52473498126	0
0	29319	4511.138779258392	1
0	29320	4511.738521548419	0
0	29325	4511.95448424927	1
0	29326	4511.96756754475	0
0	29397	4526.107255635186	1
0	29398	4526.2774143044	0
0	29511	4549.79804272754	1
0	29512	4549.922188515242	0
0	29643	4577.236311557662	1
0	29646	4577.448232378998	2
0	29647	4577.504497909616	1
0	29650	4577.55481396458	0
0	29697	4587.9678102899	1
0	29698	4588.11037260539	0
0	30333	4708.135246737722	1
0	30334	4708.600546948339	0
0	30591	4764.746646734454	1
0	30592	4764.763720331537	0
0	30771	4796.305293100579	1
0	30772	4796.609740121114	0
0	30981	4847.886678598639	1
0	30982	4847.928025339101	0
0	31275	4900.400745025381	1
0	31276	4900.659687358626	0
0	31443	4932.031125015448	1
0	31446	4932.034884259922	2
0	31447	4932.073084717291	1
0	31450	4932.400265059622	0
0	31455	4932.895988664078	1
0	31456	4932.952892411424	0
0	31491	4941.000056622393	1
0	31494	4941.237801780288	2
0	31497	4941.249198741467	3
0	31498	4941.515044314725	2
0	31501	4941.856459740863	1
0	31504	4941.895379404726	0
0	31527	4943.726709336326	1
0	31528	4944.010843525759	0
0	31563	4947.614212935096	1
0	31564	4947.709647942097	0
0	31623	4958.382846304866	1
0	31624	4958.44590203108	0
0	31635	4959.658321670314	1
0	31636	4959.849199786373	0
0	31665	4966.271532085897	1
0	31668	4966.504043529611	2
0	31669	4966.566110400765	1
0	31672	4967.619030806443	0
0	31701	4970.057748115631	1
0	31702	4970.079920733496	0
0	31767	4982.095577018959	1
0	31768	4982.370136400723	0
0	31827	4987.999709906662	1
0	31830	4988.068126940571	2
0	31831	4988.149144441857	1
0	31836	4988.662902603707	2
0	31837	4988.870190084569	1
0	31840	4988.919458790665	0
0	32073	5044.513855753868	1
0	32074	5044.594474852186	0
0	32103	5047.918720476295	1
0	32104	5048.007585133477	0
0	32145	5056.397508546261	1
0	32146	5056.505175432852	0
0	32193	5062.443022173173	1
0	32194	5062.528513174982	0
0	32349	5097.404535186053	1
0	32350	5097.82436227029	0
0	32409	5105.317528388322	1
0	32410	5105.428783168981	0
0	32517	5121.399871481719	1
0	32518	5121.749126845703	0
0	32709	5163.764774044568	1
0	32710	5163.993124728758	0
0	32715	5164.292483339024	1
0	32716	5164.356527676652	0
0	32757	5172.477738454938	1
0	32760	5172.572773495484	2
0	32763	5172.661190332296	3
0	32764	5172.690989529496	2
0	32767	5172.998261532645	1
0	32772	5173.05242063413	2
0	32773	5173.303363051607	1
0	32776	5173.719878009682	0
0	32841	5183.825227387229	1
0	32844	5184.150465362468	2
0	32845	5184.21596981448	1
0	32848	5184.790996466076	0
0	32853	5185.061634208144	1
0	32854	5185.223879096341	0
0	32967	5206.80650796554	1
0	32968	5207.292285993087	0
0	33003	5212.978944627047	1
0	33004	5213.097499366297	0
0	33027	5214.895448744249	1
0	33028	5214.951692798496	0
0	33165	5236.387215143194	1
0	33166	5236.446012356975	0
0	33189	5239.487315898042	1
0	33190	5239.557791164241	0
0	33195	5239.795402172821	1
0	33196	5239.869943939448	0
0	33219	5242.899700361697	1
0	33220	5243.229982257611	0
0	33363	5265.560711151919	1
0	33364	5265.580057323379	0
0	33435	5277.917220980916	1
0	33436	5278.082812145531	0
0	33513	5291.125032031647	1
0	33514	5291.141350537392	0
0	33519	5291.443087807614	1
0	33520	5291.770395039284	0
0	33591	5303.321341292512	1
0	33594	5303.388264653172	2
0	33595	5303.469891648563	1
0	33600	5303.734318224993	2
0	33601	5303.816138399436	1
0	33606	5304.196389761602	2
0	33607	5304.304947862484	1
0	33610	5304.488846750973	0
0	33663	5315.954169633498	1
0	33666	5316.011054601169	2
0	33667	5316.152269260744	1
0	33672	5316.199343566833	2
0	33673	5316.377492465046	1
0	33676	5316.430504101696	0
0	33885	5361.633283553979	1
0	33888	5361.777750423849	2
0	33891	5362.021719222748	3
0	33892	5362.422860914743	2
0	33895	5362.472766524183	1
0	33898	5362.69187342306	0
0	33969	5378.980071046218	1
0	33970	5379.064462948267	0
0	33975	5379.149122229263	1
0	33976	5379.599887936825	0
0	34131	5411.678584872413	1
0	34134	5411.710061266733	2
0	34135	5411.909447479967	1
0	34138	5412.208622705394	0
0	34173	5417.606244804959	1
0	34174	5417.764843969559	0
0	34179	5417.93350877159	1
0	34180	5418.252432154273	0
0	34209	5421.25605327929	1
0	34210	5421.269476961238	0
0	34233	5423.191331581569	1
0	34234	5423.429776975218	0
0	34269	5428.788210973692	1
0	34270	5428.811597001959	0
0	34449	5462.308003538114	1
0	34450	5462.840764461132	0
0	34467	5463.79692615381	1
0	34468	5464.396483296906	0
0	34515	5477.778984027418	1
0	34518	5477.994720809321	2
0	34519	5478.024090678829	1
0	34522	5478.02923007488	0
0	34527	5478.139110248054	1
0	34530	5478.140058006693	2
0	34531	5478.461563959297	1
0	34534	5478.669450627846	0
0	35217	5602.448893231821	1
0	35218	5602.501880831164	0
0	35223	5602.600808330345	1
0	35224	5602.655942392039	0
0	35265	5608.684435983812	1
0	35268	5608.826299420733	2
0	35269	5608.938834043159	1
0	35272	5610.199845462537	0
0	35523	5653.211405301963	1
0	35524	5653.667747978901	0
0	35529	5653.813997674201	1
0	35530	5653.831030790607	0
0	35535	5653.868958213345	1
0	35536	5655.095838078466	0
0	35541	5655.218106314342	1
0	35542	5655.259511751534	0
0	35565	5656.927280809931	1
0	35568	5656.971363864228	2
0	35569	5657.199752993646	1
0	35572	5657.35056480173	0
0	36051	5738.147144462712	1
0	36054	5738.380196617048	2
0	36055	5738.797514579313	1
0	36058	5738.842123957105	0
0	36063	5738.918355475292	1
0	36064	5739.095495480962	0
0	36309	5800.072450548188	1
0	36312	5800.271299143235	2
0	36313	5800.396911364198	1
0	36318	5800.522243272854	2
0	36319	5800.530808663399	1
0	36322	5800.683349077466	0
0	36441	5820.15467668737	1
0	36442	5820.408475672564	0
0	36561	5834.862133070393	1
0	36564	5834.929941401937	2
0	36565	5834.954539034206	1
0	36568	5835.132281630291	0
0	36585	5836.854488910808	1
0	36586	5836.969463753895	0
0	36603	5838.594389573593	1
0	36604	5838.706043011243	0
0	36639	5843.143131458004	1
0	36640	5843.242538929622	0
0	36645	5843.26638430492	1
0	36646	5843.367015782133	0
0	36747	5859.613154557906	1
0	36748	5859.792387748437	0
0	36831	5874.969322569597	1
0	36834	5875.182807926885	2
0	36835	5875.189073636934	1
0	36838	5875.318110565198	0
0	36843	5875.33412534353	1
0	36844	5875.412269157895	0
0	36879	5878.886634194232	1
0	36880	5879.188589482576	0
0	37035	5915.283118599041	1
0	37036	5915.328088251967	0
0	37095	5928.079613247143	1
0	37096	5928.166835218357	0
0	37149	5934.912985811902	1
0	37150	5935.18909662911	0
0	37155	5935.453695538153	1
0	37156	5936.181487168756	0
0	37161	5936.295761220749	1
0	37164	5936.479713026952	2
0	37165	5937.061797683947	1
0	37168	5937.194941115901	0
0	37281	5947.67455002354	1
0	37284	5947.947508323464	2
0	37287	5947.971785496153	3
0	37288	5948.128348371763	2
0	37291	5948.139900933924	1
0	37296	5948.309385904864	2
0	37297	5948.550189236297	1
0	37302	5948.554442912684	2
0	37303	5948.915344710174	1
0	37306	5949.151892989158	0
0	37401	5966.477002293401	1
0	37404	5966.627023647508	2
0	37405	5966.782581557571	1
0	37408	5967.081502415173	0
0	37443	5971.093847031715	1
0	37446	5971.271205385227	2
0	37447	5971.327029221544	1
0	37452	5971.45600836434	2
0	37453	5971.491172954289	1
0	37456	5971.61499760698	0
0	37545	5986.80309219397	1
0	37546	5986.805074916682	0
0	37623	6000.880991956009	1
0	37624	6001.12426160276	0
0	37635	6001.578727039993	1
0	37636	6001.912192077464	0
0	37641	6001.994873024527	1
0	37642	6002.190157175346	0
0	37653	6002.778787356266	1
0	37656	6002.875121727308	2
0	37657	6003.341185075531	1
0	37660	6003.754178004838	0
0	37767	6021.708011614608	1
0	37768	6021.729031417307	0
0	37845	6035.093279717729	1
0	37846	6035.317622503568	0
0	38031	6063.353280245175	1
0	38032	6063.48520827166	0
0	38073	6073.021481642224	1
0	38074	6073.107750275063	0
0	38079	6073.655553976816	1
0	38080	6073.674542136701	0
0	38295	6103.961251685324	1
0	38296	6104.101283272429	0
0	38331	6108.754815316058	1
0	38334	6108.849226273131	2
0	38335	6108.935620721061	1
0	38338	6108.988704608966	0
0	38505	6133.867649809109	1
0	38506	6134.430429957305	0
0	38529	6137.244454078649	1
0	38530	6137.363593213506	0
0	38541	6139.451660128674	1
0	38542	6139.477796352366	0
0	38685	6160.75273169143	1
0	38686	6160.91789649011	0
0	38697	6161.067510863104	1
0	38698	6161.171180339094	0
0	38703	6161.289250438882	1
0	38704	6161.314822265061	0
0	38757	6170.732865509429	1
0	38758	6170.835565182637	0
0	38817	6179.237589813144	1
0	38818	6179.417003005887	0
0	38835	6184.684385312796	1
0	38836	6184.775337445864	0
0	38841	6184.800221085502	1
0	38842	6184.92350495944	0
0	38847	6185.084186255703	1
0	38848	6185.148829809592	0
0	38853	6185.267511055879	1
0	38854	6185.39832101581	0
0	39015	6211.314971200836	1
0	39016	6211.317326466769	0
0	39099	6219.678791301711	1
0	39100	6219.734847590831	0
0	39153	6229.941623795861	1
0	39154	6230.111211636524	0
0	39159	6230.157437234649	1
0	39162	6230.366133738305	2
0	39163	6230.40706514656	1
0	39168	6230.51885349102	2
0	39169	6230.611692479591	1
0	39174	6230.857469606189	2
0	39175	6230.987560698126	1
0	39178	6231.117635738459	0
0	39291	6243.572745348508	1
0	39292	6243.586377010284	0
0	39315	6245.482497718856	1
0	39318	6245.510470841472	2
0	39319	6245.606804622494	1
0	39322	6245.611110450012	0
0	39423	6261.69219882914	1
0	39424	6261.790902833386	0
0	39519	6274.837820590472	1
0	39522	6275.0579940702	2
0	39523	6275.2091576092	1
0	39526	6275.46624481303	0
0	39531	6275.473640916662	1
0	39532	6275.647335241681	0
0	39825	6327.218294163447	1
0	39826	6327.390193851618	0
0	39861	6333.499893543463	1
0	39862	6333.586981189987	0
0	39867	6333.698795353799	1
0	39868	6333.774738204611	0
0	39873	6333.816498715451	1
0	39874	6333.829700021237	0
0	40011	6353.950114727557	1
0	40012	6354.595611968225	0
0	40071	6361.139411081996	1
0	40072	6361.173415401984	0
0	40077	6361.265951968471	1
0	40078	6361.525837271633	0
0	40083	6361.537408045947	1
0	40086	6361.540384748582	2
0	40087	6361.576598287673	1
0	40090	6361.953607635568	0
0	40179	6374.587450955953	1
0	40182	6374.710133447056	2
0	40183	6374.845907534202	1
0	40188	6374.983422920919	2
0	40189	6375.126559674678	1
0	40192	6375.170490351851	0
0	40275	6388.836593272776	1
0	40276	6388.959929436415	0
0	40281	6389.395708059542	1
0	40282	6389.655589311046	0
0	40293	6390.27165510768	1
0	40294	6390.338817422188	0
0	40305	6390.739821084025	1
0	40306	6390.746843344726	0
0	40317	6390.908249279831	1
0	40318	6391.190927015812	0
0	40347	6394.800866590801	1
0	40348	6394.80956669845	0
0	40413	6403.479462888229	1
0	40414	6403.561802985905	0
0	40581	6428.869720438056	1
0	40582	6429.421706473087	0
0	40629	6445.365628765352	1
0	40630	6445.401388248665	0
0	40701	6458.12311264544	1
0	40702	6458.31179633704	0
0	40731	6461.403669536147	1
0	40732	6461.438107003909	0
0	40791	6472.875052399037	1
0	40794	6472.956768444379	2
0	40797	6473.027384358406	3
0	40798	6473.080849294083	2
0	40801	6473.211716815005	1
0	40804	6473.227259060861	0
0	40809	6473.373397512166	1
0	40810	6473.741234297541	0
0	40857	6477.781944333506	1
0	40858	6478.067056620875	0
0	40863	6478.087552813069	1
0	40864	6478.164753032507	0
0	41019	6502.861807170826	1
0	41020	6503.150759694753	0
0	41103	6519.124256964997	1
0	41104	6519.555921498615	0
0	41181	6531.072479778528	1
0	41182	6531.363679861653	0
0	41253	6542.432029155354	1
0	41254	6542.642745082018	0
0	41259	6543.425152647048	1
0	41262	6543.43819637405	2
0	41265	6543.680856082772	3
0	41266	6543.799522378717	2
0	41269	6543.822919263579	1
0	41274	6544.434115832189	2
0	41275	6544.502073027788	1
0	41278	6544.666525558509	0
0	41313	6549.515070234342	1
0	41314	6550.537797826688	0
0	41439	6578.084241901236	1
0	41442	6578.117930361265	2
0	41443	6578.203331341679	1
0	41446	6578.20632272088	0
0	41481	6583.084242943473	1
0	41482	6583.092570148661	0
0	41793	6625.853049899754	1
0	41794	6625.896449077886	0
0	41931	6647.011065054947	1
0	41934	6647.036370491605	2
0	41935	6647.676568769672	1
0	41938	6647.903180986878	0
0	41979	6656.089600338575	1
0	41982	6656.101793624201	2
0	41983	6656.181875170241	1
0	41986	6656.603523898887	0
0	42015	6662.721775902615	1
0	42016	6662.872132729925	0
0	42357	6740.266021896486	1
0	42360	6740.449814264886	2
0	42363	6740.621072268751	3
0	42364	6740.720894675184	2
0	42367	6740.82421494391	1
0	42372	6740.930164311561	2
0	42373	6741.035823752867	1
0	42376	6741.490752975857	0
0	42399	6743.860378981333	1
0	42402	6743.913202837209	2
0	42403	6744.107722918247	1
0	42406	6744.186213717858	0
0	42513	6757.349664981289	1
0	42514	6757.436727035318	0
0	42783	6801.309342945453	1
0	42786	6801.473795266214	2
0	42787	6801.677174704179	1
0	42790	6802.415375570596	0
0	42795	6802.460275414669	1
0	42796	6802.94234021107	0
0	42801	6803.019724937571	1
0	42802	6803.299569664585	0
0	42825	6805.30973555359	1
0	42826	6805.471805296716	0
0	42873	6812.064128623315	1
0	42874	6812.482835201847	0
0	42933	6824.168243303453	1
0	42936	6824.381010470975	2
0	42937	6824.455448288624	1
0	42940	6824.574490515537	0
0	42957	6825.983231894053	1
0	42958	6825.990837618025	0
0	42963	6826.521379224933	1
0	42964	6826.6731875908	0
0	43035	6839.810268296836	1
0	43036	6840.13422349139	0
0	43041	6840.429804534703	1
0	43042	6840.452187759079	0
0	43095	6846.544984492596	1
0	43096	6846.579979585978	0
0	43209	6876.510637299363	1
0	43210	6876.565141286868	0
0	43221	6877.106519449762	1
0	43222	6877.138918638201	0
0	43449	6914.254304963759	1
0	43450	6914.382623367626	0
0	43581	6936.515403904157	1
0	43582	6936.583572793724	0
0	43653	6950.975787777513	1
0	43654	6951.143320183207	0
0	43815	6972.926466340975	1
0	43816	6973.384705465608	0
0	43821	6973.537938091443	1
0	43822	6973.65993890371	0
0	43965	6998.801373648405	1
0	43966	6998.862911614688	0
0	44019	7005.604016008229	1
0	44020	7005.862400075076	0
0	44025	7006.17483946849	1
0	44026	7006.251830317289	0
0	44073	7012.363602738423	1
0	44074	7012.528354677369	0
0	44157	7021.910468352828	1
0	44158	7022.194271307521	0
0	44229	7036.540228613552	1
0	44230	7036.871534776731	0
0	44247	7038.177402720084	1
0	44248	7038.285208981647	0
0	44325	7046.694896003685	1
0	44326	7046.851748012801	0
0	44397	7057.781881180026	1
0	44398	7057.911077666802	0
0	44457	7065.61134485508	1
0	44458	7065.701513014415	0
0	44493	7071.296701713191	1
0	44496	7071.39752801886	2
0	44497	7071.414692230909	1
0	44500	7071.524778905568	0
0	44571	7082.463158694867	1
0	44572	7082.817888596732	0
0	44577	7082.978160568121	1
0	44578	7083.370694685061	0
0	44625	7094.303284417856	1
0	44628	7094.379107560057	2
0	44629	7094.619958539646	1
0	44634	7094.637861954061	2
0	44635	7094.711634627033	1
0	44638	7094.808845070233	0
0	45099	7171.644043124716	1
0	45102	7171.798649543782	2
0	45103	7171.815561981548	1
0	45106	7171.855206500447	0
0	45231	7192.421481383411	1
0	45232	7192.653306546186	0
0	45351	7211.125962524291	1
0	45354	7211.654522657269	2
0	45355	7211.705060481965	1
0	45360	7211.738992676566	2
0	45363	7212.024316547699	3
0	45364	7212.170961095898	2
0	45367	7212.211634279946	1
0	45372	7212.236358700448	2
0	45373	7212.254112757278	1
0	45376	7212.408761232345	0
0	45381	7212.698547123544	1
0	45382	7212.780010511503	0
0	45453	7229.116405228228	1
0	45454	7229.381318977754	0
0	45561	7246.216427850533	1
0	45562	7246.260299734043	0
0	45753	7289.484849153398	1
0	45754	7289.726809060638	0
0	45759	7290.344481871446	1
0	45762	7290.90237722131	2
0	45763	7291.001949384702	1
0	45766	7291.014655328977	0
0	45777	7291.448173395722	1
0	45778	7291.664979432884	0
0	45843	7298.287066410893	1
0	45844	7298.314673602176	0
0	46155	7354.759215652812	1
0	46156	7354.886630806012	0
0	46185	7359.204515853256	1
0	46188	7359.294318226092	2
0	46189	7359.408545063143	1
0	46192	7359.826470613688	0
0	46359	7396.651893985596	1
0	46362	7396.714072149467	2
0	46363	7396.846810265624	1
0	46368	7396.87779569632	2
0	46369	7396.954211242537	1
0	46372	7397.193667309572	0
0	46473	7408.689815035575	1
0	46476	7409.023367458439	2
0	46479	7409.025289333113	3
0	46480	7409.131588892603	2
0	46483	7409.151234429339	1
0	46486	7410.387445594103	0
0	46491	7410.435635368597	1
0	46492	7410.51522862574	0
0	46545	7423.655146115982	1
0	46546	7423.676934668159	0
0	46557	7424.402844165265	1
0	46558	7424.906906608482	0
0	46659	7439.769648680204	1
0	46660	7439.966699430226	0
0	46839	7469.340648553378	1
0	46842	7469.620243709679	2
0	46845	7469.706532684779	3
0	46846	7469.759973660155	2
0	46849	7469.987182788927	1
0	46852	7470.176614204516	0
0	46995	7496.772039812956	1
0	46998	7496.919118863576	2
0	46999	7497.459986468823	1
0	47002	7497.716416051755	0
0	47145	7522.082065491624	1
0	47146	7522.12852332605	0
0	47181	7525.994748978767	1
0	47182	7526.180882657796	0
0	47493	7590.888128676828	1
0	47496	7591.075852612803	2
0	47499	7591.155497519979	3
0	47500	7591.771679582919	2
0	47503	7591.947901737556	1
0	47506	7592.724163956334	0
0	47661	7617.445338867548	1
0	47662	7617.612907341961	0
0	47733	7627.342409467936	1
0	47734	7627.420180525517	0
0	47925	7656.795215921572	1
0	47926	7656.803915282187	0
0	47931	7656.966515773173	1
0	47932	7657.089685267667	0
0	47937	7657.481691299152	1
0	47938	7657.489656269678	0
0	47973	7661.857533049988	1
0	47974	7662.322717024376	0
0	48033	7670.619122242899	1
0	48036	7670.665249210226	2
0	48039	7670.793678330018	3
0	48040	7670.810166831107	2
0	48043	7670.816313759002	1
0	48048	7671.128296916565	2
0	48049	7671.580162869996	1
0	48052	7671.626280347585	0
0	48087	7674.348346204381	1
0	48088	7674.349198613223	0
0	48135	7680.740493631654	1
0	48136	7681.387517566627	0
0	48231	7699.252837881986	1
0	48232	7699.321500742129	0
0	48249	7700.494149774975	1
0	48252	7700.533309031761	2
0	48255	7700.585134468625	3
0	48256	7701.007687589393	2
0	48259	7701.166432010909	1
0	48262	7701.434703285847	0
0	48453	7743.184409372685	1
0	48454	7743.207519096838	0
0	48615	7784.590301832973	1
0	48616	7784.808997928432	0
0	48783	7811.767642736312	1
0	48784	7812.032163253649	0
0	48849	7822.208663880514	1
0	48850	7822.451355416291	0
0	48969	7840.629028127226	1
0	48970	7840.644989315176	0
0	48987	7845.277472518079	1
0	48988	7845.592909537069	0
0	48993	7845.839549505424	1
0	48994	7845.967716428988	0
0	49041	7850.545673887411	1
0	49042	7850.777165804507	0
0	49077	7854.43546953802	1
0	49078	7854.693728986579	0
0	49131	7866.054434775421	1
0	49132	7866.482289770084	0
0	49407	7910.059696345799	1
0	49408	7910.211310907687	0
0	49443	7913.61654676045	1
0	49444	7913.68546830959	0
0	49449	7913.917923876707	1
0	49450	7913.96723832012	0
0	49455	7914.029476413367	1
0	49456	7914.043513370089	0
0	49545	7926.171214034324	1
0	49546	7926.210639869417	0
0	49845	7988.256021112313	1
0	49846	7988.46072790497	0
0	50133	8035.226191568954	1
0	50134	8035.460430728841	0
0	50409	8084.967408340174	1
0	50410	8085.031162427041	0
0	50433	8086.984816469926	1
0	50434	8087.177179510274	0
0	50529	8100.857034044217	1
0	50530	8100.859108203406	0
0	50565	8103.729355323357	1
0	50566	8104.017960542967	0
0	50595	8109.507046060301	1
0	50598	8109.636266328224	2
0	50599	8109.678748490259	1
0	50602	8109.781303436431	0
0	50607	8110.154965973922	1
0	50608	8110.742392586335	0
0	50661	8115.209864962878	1
0	50662	8115.29597979352	0
0	50667	8116.127791101602	1
0	50668	8116.13270809359	0
0	50721	8124.222701492618	1
0	50722	8124.244133800829	0
0	50727	8124.301910644996	1
0	50728	8124.445173728436	0
0	50757	8130.446079606121	1
0	50758	8130.992858550861	0
0	50823	8140.783182850395	1
0	50824	8141.05717667107	0
0	50829	8141.434547768964	1
0	50830	8141.439894190373	0
0	50835	8142.105233612957	1
0	50836	8142.123563638487	0
0	50955	8156.814823563505	1
0	50956	8157.031873460325	0
0	50961	8157.073125402629	1
0	50962	8157.127677678284	0
0	50985	8158.930209659316	1
0	50988	8159.180405322188	2
0	50989	8159.289718360658	1
0	50994	8159.2990913024	2
0	50995	8159.688232001922	1
0	50998	8159.953054330551	0
0	51027	8164.471925224189	1
0	51028	8164.566526390405	0
0	51267	8190.641903204205	1
0	51268	8190.676500340777	0
0	51339	8202.013616836816	1
0	51342	8202.252117061596	2
0	51343	8202.292323739797	1
0	51346	8202.349557434916	0
0	51357	8203.066675382924	1
0	51358	8203.256455237435	0
0	51513	8231.011323271553	1
0	51514	8231.763963717188	0
0	51663	8260.461470273027	1
0	51664	8260.478629224512	0
0	51687	8262.965636877012	1
0	51688	8263.036381028366	0
0	51717	8266.419631427516	1
0	51720	8266.51490144377	2
0	51721	8266.5565999255	1
0	51724	8266.753142633499	0
0	51771	8270.271376497555	1
0	51772	8270.362933032774	0
0	52011	8324.54391691098	1
0	52012	8324.643356305786	0
0	52017	8324.704445500453	1
0	52018	8325.359477125946	0
0	52023	8325.597393611146	1
0	52026	8325.736885176411	2
0	52029	8325.939783801641	3
0	52030	8325.941955571638	2
0	52035	8325.955401007662	3
0	52036	8326.164985624607	2
0	52039	8326.174560010252	1
0	52042	8327.342931817352	0
0	52101	8336.040161478077	1
0	52102	8336.080068952944	0
0	52275	8363.825176513536	1
0	52276	8364.187730253427	0
0	52317	8366.267267727913	1
0	52318	8366.737398977659	0
0	52425	8381.379082416378	1
0	52428	8381.456486734637	2
0	52429	8382.007091924022	1
0	52434	8382.384318726689	2
0	52435	8382.774555321997	1
0	52438	8382.933121094035	0
0	52455	8383.930034040354	1
0	52456	8384.327167869329	0
0	52491	8387.588571446032	1
0	52492	8387.659447172597	0
0	52497	8387.703694188979	1
0	52498	8387.766746907442	0
0	52527	8389.851927532823	1
0	52528	8389.889510817909	0
0	52677	8409.317127267617	1
0	52678	8409.623750315905	0
0	52833	8434.463856171207	1
0	52836	8434.67577939617	2
0	52839	8434.707603650793	3
0	52840	8434.857185413166	2
0	52843	8435.21732499947	1
0	52846	8435.389731869934	0
0	52857	8435.829813512727	1
0	52860	8435.842384435734	2
0	52861	8436.093256191482	1
0	52864	8436.274550715222	0
0	52893	8438.758991844295	1
0	52894	8438.929316914537	0
0	52899	8439.17058524794	1
0	52900	8439.459394803064	0
0	53079	8469.05885722472	1
0	53080	8469.658034463902	0
0	53127	8475.949009457423	1
0	53128	8476.03008560797	0
0	53181	8487.025146479486	1
0	53182	8487.162972770965	0
0	53277	8499.193192749371	1
0	53278	8499.501480952527	0
0	53517	8532.731588727419	1
0	53520	8532.817794569062	2
0	53521	8532.901612213637	1
0	53524	8533.213417746051	0
0	53553	8539.755389124554	1
0	53554	8539.782544217212	0
0	53583	8544.539761438968	1
0	53584	8544.577265139824	0
0	53589	8544.631459934275	1
0	53590	8544.889657842725	0
0	53631	8549.393704955891	1
0	53632	8549.508850273201	0
0	53637	8550.409173349565	1
0	53640	8550.413803611276	2
0	53641	8550.42773151858	1
0	53646	8551.051489369006	2
0	53647	8551.063656183066	1
0	53650	8551.273110584883	0
0	53703	8555.503960570469	1
0	53704	8556.35803452348	0
0	53739	8564.078608902686	1
0	53740	8564.556100874796	0
0	53859	8583.309220751123	1
0	53862	8583.594170449361	2
0	53863	8583.621752629098	1
0	53868	8583.692311612563	2
0	53871	8583.810444915831	3
0	53872	8583.870313110423	2
0	53875	8584.097311677245	1
0	53880	8584.133962205935	2
0	53881	8584.815496149052	1
0	53886	8585.324766462777	2
0	53887	8585.383795343079	1
0	53890	8585.735924724274	0
0	54039	8608.279855458891	1
0	54042	8608.332400252837	2
0	54043	8608.37798441287	1
0	54046	8608.510262588437	0
0	54051	8608.601281064001	1
0	54052	8608.67346516722	0
0	54069	8610.242341701989	1
0	54072	8610.42822966815	2
0	54073	8610.561585800395	1
0	54076	8610.868861196992	0
0	54195	8633.79478803409	1
0	54198	8633.927845119239	2
0	54201	8634.041879621286	3
0	54204	8634.24921933222	4
0	54205	8634.249946210346	3
0	54208	8634.287037998229	2
0	54211	8634.421371993444	1
0	54216	8634.94595712249	2
0	54217	8635.406734001051	1
0	54220	8635.423425551864	0
0	54225	8635.497719734801	1
0	54226	8635.549052612136	0
0	54297	8644.638347293608	1
0	54298	8644.724075304183	0
0	54423	8664.052003270105	1
0	54424	8664.0978674136	0
0	54429	8664.596648666597	1
0	54432	8664.721451843107	2
0	54435	8664.84024063323	3
0	54436	8665.167412943492	2
0	54439	8665.411889266341	1
0	54442	8665.556269959886	0
0	54483	8669.899690199894	1
0	54484	8669.941664408299	0
0	54507	8672.278795102467	1
0	54508	8672.323968235549	0
0	54567	8682.798641388351	1
0	54568	8682.838493470463	0
0	54573	8682.892545499318	1
0	54574	8683.083718772059	0
0	54777	8712.93829437597	1
0	54778	8712.942679550119	0
0	54783	8712.946809620246	1
0	54784	8713.216840931436	0
0	54861	8730.069849365093	1
0	54864	8730.383873880037	2
0	54867	8730.855161877287	3
0	54868	8731.087428425101	2
0	54871	8731.100496761308	1
0	54874	8731.179640391489	0
0	55017	8758.421302303483	1
0	55020	8758.823427220478	2
0	55021	8758.887254019227	1
0	55024	8759.012375443367	0
0	55071	8765.373120660509	1
0	55074	8765.850444919655	2
0	55075	8765.962144986373	1
0	55080	8766.081564495298	2
0	55081	8766.854938274577	1
0	55084	8767.15694497073	0
0	55089	8767.749668287976	1
0	55092	8767.750746585369	2
0	55093	8767.865297964712	1
0	55096	8767.889077509583	0
0	55113	8769.73848593059	1
0	55116	8769.783605006398	2
0	55119	8770.175209574768	3
0	55120	8770.219428982407	2
0	55123	8770.355878228904	1
0	55126	8770.470816259978	0
0	55311	8801.015607870559	1
0	55312	8801.141790955549	0
0	55413	8823.3367084912	1
0	55414	8823.618285697576	0
0	55431	8824.667157277963	1
0	55432	8824.904886911046	0
0	55515	8841.394212729008	1
0	55516	8841.501771939988	0
0	55725	8877.045711615435	1
0	55726	8877.533615755442	0
0	55749	8884.188526439895	1
0	55750	8884.190608979206	0
0	55821	8891.741320123819	1
0	55822	8891.86826344268	0
0	55941	8912.428809446704	1
0	55942	8912.535668969778	0
0	56013	8921.903406854711	1
0	56014	8922.263924632543	0
0	56049	8929.470725351353	1
0	56050	8929.53560510428	0
0	56067	8930.307129398531	1
0	56068	8930.402231564115	0
0	56133	8942.684748079921	1
0	56134	8942.716965080922	0
0	56139	8942.92262713206	1
0	56142	8943.046926064025	2
0	56145	8943.094440708723	3
0	56148	8943.097074842771	4
0	56151	8943.259383033602	5
0	56154	8943.27776158725	6
0	56155	8943.310891552104	5
0	56160	8943.402801094034	6
0	56161	8943.430357286359	5
0	56164	8943.477357678955	4
0	56169	8944.059198758162	5
0	56170	8944.140280094969	4
0	56175	8944.186908639553	5
0	56176	8944.324881802367	4
0	56179	8944.440935578711	3
0	56182	8944.492982246951	2
0	56185	8944.762600266772	1
0	56188	8944.773531198251	0
0	56199	8945.25373210296	1
0	56200	8945.372689927176	0
0	56205	8945.504515719924	1
0	56206	8946.114173194514	0
0	56211	8946.423116843722	1
0	56212	8946.465401546693	0
0	56229	8947.32393865122	1
0	56230	8947.818760025629	0
0	56433	8980.006264658276	1
0	56434	8980.216029658699	0
0	56439	8980.254627000762	1
0	56440	8980.811150914102	0
0	56541	8997.276707370079	1
0	56544	8997.346922876314	2
0	56545	8997.568720049092	1
0	56548	8998.107427219962	0
0	56571	9000.559229721252	1
0	56572	9000.637229590738	0
0	56853	9064.493292827051	1
0	56854	9064.539963383269	0
0	57009	9093.473479711268	1
0	57010	9093.485111160441	0
0	57189	9127.609409144139	1
0	57190	9127.800795573237	0
0	57213	9129.711714604037	1
0	57214	9129.740945663684	0
0	57219	9129.849569880456	1
0	57220	9130.071978767469	0
0	57291	9141.791899397907	1
0	57294	9141.886417118862	2
0	57295	9142.273006976813	1
0	57298	9142.296148963292	0
0	57435	9162.198427175593	1
0	57436	9162.363930363899	0
0	57447	9162.678374922549	1
0	57448	9163.345494404242	0
0	57609	9194.850080511259	1
0	57610	9194.851975555553	0
0	57639	9198.520531169246	1
0	57640	9198.82475046564	0
0	57717	9208.505747241207	1
0	57718	9208.818177641889	0
0	57921	9243.931282830181	1
0	57922	9243.967689668106	0
0	57975	9247.694976057256	1
0	57976	9247.806538717833	0
0	58119	9270.21975766669	1
0	58120	9271.123197099398	0
0	58143	9274.497311497169	1
0	58144	9274.617132837308	0
0	58149	9275.011814519853	1
0	58150	9275.139897694776	0
0	58197	9278.620148658624	1
0	58198	9279.43349814992	0
0	58269	9287.584483570821	1
0	58270	9287.594992273929	0
0	58407	9317.004204939495	1
0	58408	9317.019084907248	0
0	58419	9317.168402083218	1
0	58420	9317.960471171462	0
0	58431	9319.122138985642	1
0	58432	9319.316502329727	0
0	58449	9321.15315307104	1
0	58450	9321.307114461382	0
0	58515	9332.762924479343	1
0	58516	9332.809501816128	0
0	58617	9348.971683152525	1
0	58620	9349.091170511763	2
0	58621	9349.148342135013	1
0	58624	9349.727612696862	0
0	58683	9358.798532112082	1
0	58684	9358.857402729132	0
0	58695	9360.617632503487	1
0	58696	9360.815287315417	0
0	58737	9365.567515269632	1
0	58738	9365.714698183499	0
0	58743	9365.720744744607	1
0	58746	9365.724074962031	2
0	58747	9365.761119670227	1
0	58750	9365.79085815676	0
0	58875	9386.483720478862	1
0	58878	9386.56982988678	2
0	58879	9386.861025574382	1
0	58884	9387.433537372453	2
0	58887	9387.447959827637	3
0	58888	9387.768673312993	2
0	58893	9387.98389114776	3
0	58894	9388.357268988646	2
0	58897	9388.684638034284	1
0	58900	9389.020744607078	0
0	58917	9391.797243860571	1
0	58918	9391.840895971927	0
0	58977	9396.814678113563	1
0	58978	9397.472642383372	0
0	58983	9397.572194922378	1
0	58984	9398.183871628829	0
0	59097	9414.744288666861	1
0	59098	9414.964362864516	0
0	59103	9415.046352182232	1
0	59104	9415.120095551134	0
0	59295	9452.824986120972	1
0	59296	9452.956529837446	0
0	59301	9453.001005683479	1
0	59302	9453.198852428881	0
0	59307	9453.365942696291	1
0	59310	9453.940333617592	2
0	59313	9454.736313078496	3
0	59314	9454.982818930391	2
0	59317	9455.285327443002	1
0	59320	9455.294400112923	0
0	59367	9461.43398055781	1
0	59370	9461.497720670189	2
0	59371	9461.554367401151	1
0	59374	9461.568609236872	0
0	59385	9462.463820536238	1
0	59388	9462.766837988234	2
0	59389	9462.827204580538	1
0	59394	9462.919911537181	2
0	59395	9463.050416648152	1
0	59398	9463.051776799613	0
0	59499	9480.77652994392	1
0	59500	9480.973459306335	0
0	59547	9491.079881805637	1
0	59548	9491.866829566149	0
0	59649	9505.192097037423	1
0	59650	9505.370354207778	0
0	59691	9510.448425398035	1
0	59692	9510.548268824386	0
0	59721	9513.756672339089	1
0	59722	9513.784509563679	0
0	59727	9513.790566167031	1
0	59728	9513.866031587416	0
0	59817	9526.209911560442	1
0	59818	9526.22663207834	0
0	59859	9533.112548492484	1
0	59860	9533.114647030694	0
0	59919	9541.24796347624	1
0	59920	9541.864878601629	0
0	59931	9542.064176406919	1
0	59934	9542.066429336013	2
0	59935	9542.237628300644	1
0	59938	9542.475611666858	0
0	60033	9562.03676801286	1
0	60034	9562.135668904177	0
0	60039	9562.339758182301	1
0	60040	9562.368296174291	0
0	60141	9578.720494765945	1
0	60142	9578.989661714439	0
0	60189	9583.410679058899	1
0	60190	9583.640653426709	0
0	60201	9584.448682054603	1
0	60202	9584.579154572842	0
0	60243	9588.52529447345	1
0	60244	9588.601673983768	0
0	60261	9590.257733768191	1
0	60262	9590.62657597486	0
0	60423	9621.543874286976	1
0	60424	9621.632322870023	0
0	60435	9622.195675571367	1
0	60436	9622.238083687292	0
0	60537	9635.988007262163	1
0	60538	9636.009793858429	0
0	60549	9636.501810006324	1
0	60550	9636.538442904057	0
0	60597	9645.907575842304	1
0	60598	9646.259370942728	0
0	60669	9655.015499874217	1
0	60670	9655.04836507303	0
0	60735	9661.119614616021	1
0	60736	9661.841850816022	0
0	60777	9666.48059876587	1
0	60778	9666.945278202241	0
0	60795	9667.670620023799	1
0	60796	9667.730553655321	0
0	60801	9668.000336441802	1
0	60804	9668.07680027155	2
0	60807	9668.358508182065	3
0	60808	9668.500004297466	2
0	60811	9668.554934913839	1
0	60814	9668.993728747895	0
0	60921	9691.00855204306	1
0	60922	9691.598525502653	0
0	61047	9720.559665235592	1
0	61048	9720.858319143521	0
0	61077	9724.636386405133	1
0	61078	9724.803217740193	0
0	61197	9746.940129814397	1
0	61198	9747.355193297776	0
0	61203	9747.815475218906	1
0	61204	9747.821932327864	0
0	61395	9775.227949797646	1
0	61396	9775.501633875256	0
0	61509	9799.025765472393	1
0	61510	9799.223881831178	0
0	61581	9809.696573245923	1
0	61584	9810.15049540916	2
0	61587	9810.271307343579	3
0	61588	9810.359759438321	2
0	61593	9810.485121855268	3
0	61594	9810.906722348723	2
0	61599	9810.975451787799	3
0	61600	9811.136069007584	2
0	61605	9811.432887969289	3
0	61606	9811.51542092625	2
0	61609	9811.766054680952	1
0	61614	9811.774076802455	2
0	61615	9811.91601395718	1
0	61618	9812.191458400269	0
0	61869	9858.788381693971	1
0	61870	9858.88401062709	0
0	61899	9860.708877574429	1
0	61900	9860.715663858843	0
0	62001	9877.495040336757	1
0	62004	9877.532015975185	2
0	62005	9877.692457402981	1
0	62008	9878.285394433768	0
0	62097	9895.684518752486	1
0	62098	9895.815922868702	0
0	62403	9947.402620987843	1
0	62404	9947.587763579234	0
0	62529	9973.2378706753	1
0	62530	9973.316139982275	0
0	62535	9973.359955341072	1
0	62536	9974.097183330527	0
0	62613	9987.029855222541	1
0	62614	9987.305476239498	0
0	62739	10009.787650219816	1
0	62740	10009.934509784662	0
1	0	0	0
1	81	8.485231324315	1
1	86	10.272718987754	2
1	93	11.253045413114	1
1	100	12.004161320511	0
1	131	15.15400288293	1
1	140	16.175434757279	2
1	147	16.946269415746	3
1	152	17.684096707502	4
1	153	17.775157284565	3
1	156	17.779543874614	2
1	161	17.796042868135	3
1	164	18.103323220288	4
1	167	18.309526502318	5
1	168	18.462468411444	4
1	171	18.73246000778	3
1	180	19.79778132807	4
1	183	19.943059355362	5
1	186	19.962027924563	6
1	197	20.35379873524	7
1	198	20.941531186729	6
1	209	21.300795412415	7
1	216	22.595248766616	6
1	219	23.204508575402	5
1	222	23.554796192894	4
1	227	24.178710433693	5
1	228	24.214201816428	4
1	239	24.753242840434	5
1	242	24.8153581309	6
1	249	26.505177793505	5
1	268	27.214175030863	4
1	273	27.974963457982	3
1	278	28.315571815355	4
1	287	28.708684372659	5
1	290	29.286008683466	6
1	295	29.562909665356	5
1	298	29.615873734591	4
1	303	30.291879688633	5
1	304	30.480080073059	4
1	309	30.526181207409	5
1	310	30.639260746917	4
1	315	30.702094752835	5
1	320	31.760837467929	6
1	321	32.043882000003	5
1	324	32.100247444365	4
1	329	32.632753321555	5
1	332	33.260694902546	6
1	339	33.904475904149	7
1	342	34.077603360295	8
1	355	34.490104590217	9
1	360	34.638816859469	10
1	361	34.672606799408	9
1	372	35.638729068806	8
1	377	36.145452192742	9
1	378	36.50055480469	8
1	381	36.623536010568	7
1	384	36.642532167974	6
1	387	36.915829538114	5
1	390	37.542839944292	4
1	395	37.865783850459	5
1	398	37.966818625768	6
1	403	39.136311454761	5
1	408	39.55225328184	4
1	413	41.540406998112	5
1	444	44.827340822323	4
1	447	45.151361371677	3
1	452	45.302334282616	4
1	453	45.41515349671	3
1	456	45.418449575381	2
1	461	45.95798056698	3
1	462	45.965505621839	2
1	467	46.340681515842	3
1	468	46.552651224538	2
1	473	46.875565891599	3
1	476	46.941863293081	4
1	479	47.186258741163	5
1	484	47.621169236078	4
1	493	48.311946176109	3
1	502	48.365448268228	4
1	507	48.836115979601	3
1	516	50.905752776187	4
1	525	51.231093191716	5
1	536	52.331939101807	6
1	541	53.294199811673	5
1	546	53.373719755986	6
1	549	53.681237479748	7
1	552	53.883587918315	8
1	557	54.390788041572	9
1	564	54.978776730132	8
1	573	55.273917083531	9
1	576	55.278623624023	10
1	582	55.920311314319	9
1	585	56.369087314908	8
1	588	56.557176749269	7
1	593	56.569599272226	8
1	594	56.601046997995	7
1	605	57.898357145976	8
1	608	58.184378118484	9
1	609	59.2015822626	8
1	614	59.595402527778	9
1	615	59.664167642112	8
1	620	60.099746334366	9
1	641	62.363479910227	10
1	645	63.508058603655	9
1	650	63.552483332009	10
1	657	65.083640394854	9
1	664	65.650333938643	8
1	669	66.927118973061	7
1	678	67.395489915253	8
1	679	67.505754630198	7
1	684	67.682900391323	8
1	685	67.733485479185	7
1	690	68.05863923373	8
1	697	68.260821594321	7
1	702	69.087857272305	6
1	717	70.426836408192	5
1	722	71.423009686781	6
1	723	71.472287702853	5
1	728	71.925320485042	6
1	731	72.889774050536	7
1	740	73.822176930943	8
1	753	74.457304646574	9
1	758	74.799904271272	10
1	766	75.340577067136	9
1	773	76.245915013632	10
1	777	76.434851614061	9
1	782	76.500036090575	10
1	813	78.788371229533	9
1	818	78.921190213631	10
1	822	79.62286880427	9
1	825	79.722009504001	8
1	828	79.888005013527	7
1	831	80.369197522369	6
1	834	80.8088905472	5
1	837	80.99351143156	4
1	846	81.439905701301	5
1	857	82.209982560847	6
1	860	82.315595204476	7
1	863	82.420477040076	8
1	874	83.845565459625	7
1	877	83.86986573962	6
1	884	84.240264249349	5
1	887	84.623093378197	4
1	892	84.939759170159	5
1	895	85.326696520031	4
1	898	85.521351485224	3
1	903	85.649677097383	4
1	906	85.781860806998	5
1	911	86.396349129648	4
1	916	86.946959529034	3
1	919	87.164198902168	2
1	924	87.291684262607	3
1	929	87.442475272801	4
1	932	87.965345302889	5
1	935	87.999132088441	6
1	938	88.070807472754	7
1	963	91.716985432264	6
1	968	92.120654311559	7
1	971	92.137422077551	8
1	984	93.930394335332	7
1	989	94.073999315042	8
1	990	94.307605511689	7
1	993	94.741127557756	6
1	1004	95.383297679065	7
1	1031	96.055758195899	8
1	1034	96.309263901042	9
1	1035	96.435782334728	8
1	1044	98.385294961485	9
1	1049	99.322433679208	10
1	1056	100.248696246939	9
1	1059	100.403160525322	8
1	1064	100.541230482551	9
1	1065	101.017743346588	8
1	1078	101.234430252089	9
1	1083	102.022776599289	8
1	1096	102.863540142916	7
1	1117	106.113563140083	8
1	1134	106.62142826277	9
1	1137	106.78422767988	8
1	1146	106.868287531569	9
1	1149	107.469966518093	10
1	1173	109.761082769443	9
1	1178	109.785864257537	10
1	1221	114.026177283345	9
1	1230	114.890160857201	8
1	1235	114.910666360345	9
1	1248	117.180506376129	10
1	1258	118.049178391793	9
1	1263	118.09494419168	10
1	1278	119.377542687814	9
1	1281	119.467408248362	8
1	1286	119.796546277422	9
1	1287	119.891900104254	8
1	1296	120.834396352911	9
1	1307	121.567764026079	10
1	1318	122.835259817816	9
1	1331	123.296703850648	8
1	1340	123.62858526696	9
1	1341	123.820153735769	8
1	1346	124.289088346709	9
1	1347	125.106630759398	8
1	1352	125.843751284518	9
1	1353	126.004620178815	8
1	1362	126.104391413894	9
1	1367	126.480820765415	10
1	1368	126.514910902506	9
1	1373	126.720744284851	10
1	1377	127.879417460607	9
1	1382	128.089160555683	10
1	1383	128.113397167345	9
1	1400	129.332511333632	10
1	1407	130.206122332808	9
1	1416	130.371716970213	10
1	1437	132.785908006969	9
1	1440	133.133066494595	8
1	1449	133.268286232845	9
1	1450	133.764723401477	8
1	1455	133.772566166096	9
1	1458	134.060686320126	8
1	1467	134.605944406742	9
1	1476	134.762420177126	10
1	1477	134.863419462175	9
1	1486	134.895760800399	10
1	1516	137.817192115506	9
1	1523	138.813901507412	10
1	1524	138.81851797661	9
1	1531	139.23870766941	8
1	1536	139.363055673208	7
1	1541	139.69211658613	8
1	1544	139.967644523168	9
1	1545	140.508136540678	8
1	1550	141.098563002357	9
1	1553	141.163675867144	10
1	1557	141.45932110762	9
1	1562	141.991382983794	10
1	1566	142.348383922789	9
1	1569	142.406448106808	8
1	1580	143.109075762386	9
1	1583	144.324766235745	10
1	1584	144.492896626562	9
1	1589	145.207646780702	10
1	1596	146.497318577419	9
1	1605	146.656793021055	10
1	1611	149.657828440178	9
1	1616	149.680961448947	10
1	1626	150.578056946582	9
1	1635	151.606953256208	8
1	1640	153.186298248345	9
1	1641	153.37239724072	8
1	1650	154.443535243916	9
1	1657	154.928770775247	8
1	1662	155.182975892077	7
1	1667	155.676415706947	8
1	1668	156.246906537097	7
1	1679	157.566517405043	8
1	1682	157.579842649871	9
1	1687	158.049550509346	8
1	1694	158.191772486445	7
1	1697	158.458290363119	6
1	1702	159.492557359725	5
1	1721	161.239499980636	6
1	1730	161.699291298412	7
1	1739	162.258298968403	8
1	1742	162.468832256607	9
1	1745	162.981546899237	10
1	1767	164.315466444351	9
1	1770	165.332347747304	8
1	1781	167.64522548479	9
1	1782	167.821526108331	8
1	1789	169.121287429745	7
1	1794	169.576055916027	6
1	1799	170.015613065404	7
1	1802	170.100192557166	8
1	1805	170.459486462292	9
1	1814	170.982454115948	10
1	1819	172.098638632369	9
1	1828	172.591180321779	8
1	1831	172.592804985329	7
1	1834	172.696244237206	6
1	1837	172.717599642961	5
1	1840	172.767933370827	4
1	1847	173.589025918269	5
1	1850	173.747959097925	6
1	1851	173.797292321898	5
1	1854	174.165973420671	4
1	1857	174.625915051083	3
1	1864	175.564660523909	2
1	1871	175.892344562438	3
1	1872	176.037113340943	2
1	1877	176.173868584909	3
1	1884	176.719526299676	4
1	1887	176.762587813804	3
1	1890	177.136714996587	2
1	1901	178.489146122886	3
1	1904	178.804306151602	4
1	1911	179.10020802485	5
1	1914	179.157174557317	6
1	1927	179.55805739514	5
1	1932	179.80434926136	6
1	1943	180.547932453136	7
1	1948	181.130164215657	6
1	1953	181.425022239968	5
1	1958	181.737428704471	6
1	1973	183.491143349495	7
1	1976	183.549671248442	8
1	1979	184.628598156942	9
1	1988	185.039637493053	8
1	1995	185.726284127568	7
1	2000	185.822611527537	8
1	2001	185.967437064904	7
1	2006	186.019073413434	8
1	2009	186.091492523549	9
1	2010	186.243698569338	8
1	2013	186.331317253403	7
1	2022	186.977253169579	8
1	2027	187.120506190961	9
1	2030	187.339974351855	10
1	2031	188.429209850139	9
1	2036	188.850435953079	10
1	2045	189.198571884315	9
1	2052	189.919281587811	8
1	2055	190.180395144018	7
1	2066	191.442884561862	8
1	2069	192.113116438438	9
1	2070	192.194318330651	8
1	2081	192.974783930233	9
1	2082	193.972483404196	8
1	2087	194.012029024336	9
1	2090	194.048031854085	10
1	2091	194.493105904136	9
1	2094	195.332853078333	8
1	2099	195.578880273028	9
1	2100	195.624670726235	8
1	2107	196.008507322674	7
1	2114	196.292264555829	8
1	2115	196.764303196212	7
1	2122	196.795935489205	6
1	2127	197.192427169603	5
1	2132	197.340553660785	6
1	2135	197.499565677584	7
1	2136	197.548361841585	6
1	2151	199.290349007416	5
1	2154	199.55853272049	4
1	2157	199.690841030609	3
1	2160	199.77665982469	2
1	2169	200.342453636728	1
1	2172	200.429709971263	0
1	2177	200.632395167131	1
1	2178	201.680658165433	0
1	2183	201.920357142207	1
1	2194	202.429559629073	2
1	2195	202.648938329003	1
1	2206	203.070533174337	2
1	2219	204.330174344961	3
1	2224	205.185186635588	2
1	2231	205.34094350806	3
1	2234	205.515938556278	4
1	2237	205.525752992676	5
1	2238	205.864891524398	4
1	2241	206.302665734743	3
1	2256	207.117309115469	4
1	2257	207.138719203332	3
1	2278	209.182137980894	2
1	2291	210.190384338254	3
1	2300	212.585564127643	4
1	2303	212.674396510298	5
1	2306	212.848053073506	6
1	2309	212.94727459999	7
1	2310	213.473362383467	6
1	2315	213.938554105749	7
1	2318	214.446773559802	8
1	2319	214.931697963348	7
1	2322	215.514589198456	6
1	2343	217.428553217128	7
1	2346	217.46242507237	8
1	2351	217.829130226164	9
1	2352	218.294228539769	8
1	2367	219.442390703943	7
1	2374	219.590560259806	6
1	2383	220.550384627136	5
1	2396	221.022892098846	6
1	2397	221.502807699262	5
1	2402	221.962394084709	6
1	2411	222.066064921351	7
1	2412	222.509822948371	6
1	2417	222.671498702991	7
1	2418	223.028159199725	6
1	2423	223.067064303386	7
1	2426	223.331999241023	8
1	2429	223.60272363176	9
1	2430	223.84272643106	8
1	2451	224.555846170026	9
1	2458	224.626348118387	10
1	2500	226.638488321799	9
1	2509	227.07359307449	8
1	2516	230.124192023677	9
1	2519	230.495353744478	10
1	2523	231.327701594527	9
1	2530	231.807870236331	8
1	2537	232.454165177225	9
1	2556	235.086960525673	8
1	2563	235.744425440064	7
1	2574	236.390324491432	6
1	2583	237.001989029085	7
1	2590	237.730366602118	8
1	2597	238.418880490162	9
1	2600	239.227860185295	10
1	2612	240.308605833788	9
1	2619	240.3220857699	10
1	2620	240.360029299606	9
1	2627	240.769225672497	10
1	2628	241.003335363017	9
1	2637	241.509877382597	8
1	2640	241.980870093152	7
1	2645	242.533313064686	8
1	2648	242.798095338024	9
1	2651	243.394267229421	10
1	2662	244.393078987207	9
1	2667	245.064484549433	8
1	2670	245.434724272969	7
1	2673	245.52025524048	6
1	2676	245.642522595218	5
1	2691	247.656084132163	4
1	2696	248.353164157841	5
1	2699	248.612276413723	6
1	2700	248.720983005934	5
1	2705	248.724220954867	6
1	2706	250.238265990615	5
1	2715	251.739189227053	6
1	2730	252.909624957067	7
1	2735	253.03045635333	8
1	2736	254.772429124275	7
1	2751	255.165158747871	8
1	2754	255.401067504978	7
1	2763	255.634036903499	8
1	2766	255.905592695181	9
1	2769	256.185133764541	8
1	2780	257.492949924873	9
1	2787	257.844271206415	10
1	2788	257.882216282801	9
1	2811	259.322680401204	8
1	2816	259.671797474232	9
1	2819	260.467019675541	10
1	2820	261.785199981165	9
1	2831	262.48660417876	10
1	2832	263.748119441776	9
1	2837	263.875962685708	10
1	2838	263.972472303325	9
1	2849	265.078520030417	10
1	2850	265.422755512755	9
1	2853	266.105887095407	8
1	2856	266.700268153139	7
1	2867	268.384228029272	6
1	2886	269.373836886928	5
1	2889	269.871865140159	4
1	2892	270.229193639414	3
1	2897	270.26364945345	4
1	2904	270.746224668611	5
1	2907	270.821416477775	6
1	2908	271.177758808622	5
1	2911	271.353162445189	4
1	2916	271.516278912862	3
1	2919	271.595835024425	2
1	2936	274.127233583343	1
1	2944	274.257039870253	2
1	2950	274.487897750246	1
1	2969	276.320185902556	0
1	3140	291.522906307736	1
1	3147	292.12960715782	0
1	3152	292.339498996584	1
1	3153	292.387886394962	0
1	3158	293.038080002663	1
1	3159	293.067161033919	0
1	3164	293.204875760785	1
1	3165	293.31329747463	0
1	3170	293.759144234198	1
1	3177	294.833854549023	0
1	3284	305.672775423155	1
1	3295	306.534469726531	0
1	3421	315.600005053793	1
1	3459	318.639536643927	2
1	3462	318.814164440407	3
1	3465	318.971836493236	4
1	3468	319.244662468258	3
1	3471	319.655403020533	2
1	3474	319.725152568269	1
1	3479	320.05393837772	2
1	3482	320.133508532813	3
1	3485	320.581837839425	4
1	3494	321.774090081507	5
1	3495	322.924920231477	4
1	3498	323.288714430356	3
1	3519	323.88187043991	4
1	3522	324.878009312382	3
1	3527	325.228497728446	4
1	3528	325.279783443153	3
1	3541	327.149113019059	2
1	3548	327.511891762865	3
1	3557	327.898385944909	4
1	3560	328.348099312855	5
1	3561	328.413639455192	4
1	3564	328.565296227954	3
1	3569	329.257670017728	4
1	3572	329.732879456513	5
1	3575	329.73808258932	6
1	3576	330.012563205061	5
1	3579	330.020058455592	4
1	3582	330.416537408604	3
1	3585	331.747679573152	2
1	3588	333.2258439079	1
1	3593	333.62672731209	2
1	3600	334.138570544488	1
1	3611	334.767251787054	2
1	3616	335.324991292461	1
1	3623	335.416662513848	2
1	3630	335.689013740203	3
1	3635	336.255715700053	4
1	3636	336.471661634701	3
1	3639	336.695132739447	2
1	3644	336.714467002699	3
1	3645	337.060393593988	2
1	3650	337.611152839284	3
1	3655	337.990026527378	2
1	3660	338.176408120595	3
1	3665	338.614147576708	4
1	3668	338.715963218685	5
1	3669	339.279035970708	4
1	3674	339.786045708313	5
1	3675	340.228747686754	4
1	3678	340.765698794842	3
1	3683	340.842486702494	4
1	3692	341.918877161912	5
1	3699	341.957165959684	6
1	3702	342.390865430085	7
1	3703	342.792754468028	6
1	3708	342.985331446783	7
1	3709	343.06504502231	6
1	3714	344.348052967415	5
1	3719	345.760086068363	6
1	3722	347.437020801355	7
1	3725	347.747216924619	8
1	3726	348.27570067988	7
1	3743	351.486365402659	8
1	3744	352.199675647638	7
1	3749	352.684516790503	8
1	3764	353.093234444737	9
1	3767	353.115161825427	10
1	3781	354.381854654048	9
1	3786	354.407820489171	10
1	3790	355.059599720074	9
1	3809	355.572775759689	8
1	3814	355.74804650078	7
1	3823	356.285225764058	6
1	3828	357.535629752595	5
1	3833	357.793436429385	6
1	3840	360.170588958149	5
1	3843	360.178844198189	4
1	3858	361.638372611616	3
1	3863	361.893370722055	4
1	3870	362.962701780423	5
1	3873	362.971673167757	6
1	3878	363.07399164733	7
1	3881	363.168558383831	8
1	3882	363.524452983148	7
1	3887	363.857269227787	8
1	3894	364.486033337818	7
1	3899	364.727349138154	8
1	3906	364.91250519164	9
1	3907	365.399972273047	8
1	3910	365.697397718349	7
1	3915	365.942834487048	6
1	3920	367.181474278264	7
1	3921	367.730415326364	6
1	3926	367.82238970146	7
1	3929	368.475842961187	8
1	3930	368.54353167093	7
1	3933	368.838409420614	6
1	3942	369.086597136052	7
1	3945	369.191911555254	8
1	3946	369.253315973443	7
1	3951	369.657895530049	6
1	3954	370.905770753638	5
1	3959	371.137696139176	6
1	3962	371.454123530364	7
1	3963	371.667288727167	6
1	3968	372.067090799046	7
1	3969	372.213375180417	6
1	3974	372.335313892317	7
1	3977	372.395988192492	8
1	3992	373.508852004104	9
1	3993	373.835911293723	8
1	3998	374.019123401863	9
1	4007	374.499415215671	10
1	4008	374.934164781831	9
1	4017	375.064626850518	10
1	4030	376.321791070804	9
1	4033	376.807988363837	8
1	4040	377.178672757433	9
1	4041	377.516568761935	8
1	4046	377.570357297315	9
1	4057	377.950476328653	10
1	4086	379.160637070988	9
1	4091	379.367754891132	10
1	4110	381.001492596078	9
1	4117	381.186762235861	8
1	4128	383.010467986336	7
1	4131	383.021342703238	6
1	4140	383.527683184639	7
1	4143	385.215188120073	6
1	4146	385.972325926025	5
1	4153	386.348823699001	4
1	4158	386.705113806105	5
1	4168	387.143967983147	6
1	4175	388.251614273803	5
1	4181	388.470888712325	4
1	4186	388.616580845691	5
1	4193	388.983849013189	6
1	4196	389.067809053222	7
1	4221	389.838440114023	8
1	4226	389.906878989406	9
1	4227	389.911194443706	8
1	4240	390.521897346137	7
1	4245	390.627931393826	8
1	4246	390.740145800218	7
1	4253	391.032052276558	6
1	4260	391.448190386436	7
1	4271	392.455993311946	6
1	4276	392.642425617064	5
1	4295	393.723910369509	6
1	4318	395.244786277142	7
1	4321	395.345291800875	8
1	4330	395.843808132789	9
1	4333	396.518084904154	8
1	4340	396.945204211096	9
1	4343	397.159286405759	10
1	4348	397.562306388939	9
1	4351	398.210133731464	8
1	4356	399.354736075208	7
1	4363	400.293146296112	6
1	4372	400.808844465369	5
1	4391	401.529286157187	6
1	4400	402.674172606656	7
1	4401	402.744267914789	6
1	4410	402.776751866553	7
1	4415	403.280177982007	8
1	4418	403.454347203114	9
1	4421	403.719717160889	10
1	4425	404.029676347497	9
1	4428	404.543205033908	8
1	4433	404.64817279878	9
1	4436	404.652040621967	10
1	4441	404.832310261689	9
1	4456	405.362976024937	8
1	4461	405.59105922549	9
1	4470	406.862669227809	10
1	4471	407.081544455024	9
1	4480	407.260730232797	10
1	4485	408.017022611115	9
1	4494	409.070841244259	10
1	4513	410.175624457841	9
1	4520	411.199713367517	10
1	4539	412.53217561821	9
1	4544	412.99549524703	10
1	4545	413.373187382673	9
1	4548	413.458369133984	8
1	4553	414.027415949947	9
1	4556	414.615459761624	10
1	4557	414.826481895323	9
1	4560	415.19360889363	8
1	4565	415.717221678939	9
1	4570	416.906678416092	8
1	4579	417.53792937131	7
1	4586	417.843152248882	8
1	4587	418.893949977793	7
1	4590	418.922753496136	6
1	4593	419.595723168173	5
1	4598	420.100239390513	6
1	4601	421.256938680212	7
1	4602	421.793071273706	6
1	4611	422.38299147791	7
1	4618	422.626921147771	8
1	4623	422.828010182185	7
1	4628	423.999645153602	8
1	4633	424.157869963163	7
1	4654	425.277731447491	8
1	4669	425.853654420362	9
1	4692	427.704240066948	10
1	4698	429.589179095027	9
1	4703	429.590601483494	10
1	4710	430.148941148367	9
1	4715	430.258996710394	10
1	4725	432.142930017887	9
1	4734	432.474550951779	10
1	4749	434.690846478801	9
1	4752	434.850804338497	8
1	4755	434.874930263522	7
1	4760	435.212574247052	8
1	4761	435.292106714255	7
1	4764	435.810848951922	6
1	4789	437.63914030576	5
1	4794	437.893569336799	6
1	4795	438.065182003555	5
1	4806	439.07497473539	6
1	4807	439.236103166716	5
1	4812	439.350148492104	4
1	4823	439.98147601261	5
1	4826	440.415242202117	6
1	4829	441.332016073804	7
1	4830	442.361984302424	6
1	4837	442.803797793504	5
1	4844	443.610325816612	6
1	4853	444.713651119312	7
1	4856	445.054129310848	8
1	4859	445.143033535744	9
1	4878	445.875155415094	8
1	4881	445.894080696725	7
1	4888	446.284984378996	6
1	4907	447.217685918142	7
1	4910	447.218232038101	8
1	4911	447.226509683579	7
1	4916	447.402205981731	8
1	4919	447.468811118972	9
1	4922	447.534474304149	10
1	4948	449.365618103937	9
1	4957	450.347087994745	8
1	4970	450.535509371673	9
1	4971	450.537016199461	8
1	4974	450.905084475303	7
1	4979	451.624125544727	8
1	4984	451.915964149091	7
1	4987	452.150809833755	6
1	5002	452.638752298992	7
1	5009	452.767351132055	6
1	5020	453.366775181986	7
1	5038	453.976845973262	8
1	5039	454.3803173306	7
1	5049	454.7663225681	8
1	5060	456.905800091082	9
1	5073	457.761649312525	10
1	5074	457.944094354332	9
1	5077	458.025502418637	8
1	5088	458.486572748833	9
1	5089	458.723150004352	8
1	5092	458.76964657929	7
1	5097	458.959660164083	6
1	5100	460.147751974079	5
1	5103	460.303042807466	4
1	5108	460.544663926486	5
1	5111	460.579328629048	6
1	5118	461.818775787829	7
1	5121	461.921493054185	6
1	5124	462.250895175517	5
1	5129	463.682161771624	6
1	5132	463.833352198068	7
1	5139	463.969961057759	8
1	5152	465.321857847019	7
1	5171	466.736441225814	8
1	5182	467.867928894944	7
1	5191	468.25082495058	6
1	5196	468.673395554801	5
1	5199	469.621835519978	4
1	5202	469.887593726722	3
1	5207	470.038625178267	4
1	5214	470.243827996596	5
1	5215	470.519451148473	4
1	5222	471.129044841247	5
1	5243	472.787638228153	6
1	5250	473.229788400082	7
1	5257	473.891679947591	6
1	5260	474.073778777295	5
1	5265	474.344380361777	4
1	5282	475.967530906399	3
1	5301	477.054358056521	4
1	5302	477.155253080601	3
1	5305	477.425696077539	2
1	5308	477.814390025629	1
1	5321	478.385762406967	2
1	5322	478.798881410798	1
1	5327	478.967943460104	2
1	5328	479.215486964061	1
1	5333	479.634274336128	2
1	5340	480.22915059202	3
1	5343	480.418129108738	4
1	5361	481.545369689119	3
1	5368	482.756828536775	2
1	5371	482.97935423807	1
1	5386	485.594282225882	0
2	10	1.725676610603	0.929802106037
2	20	2.54030847581	0.488503213197
2	30	2.845417831144	0.242564081861
2	40	3.709965878658	0.525462021838
2	42	3.800191120368	0.159178070421
2	52	6.140576051312	3.531591391375
2	58	7.282866613486	0.326941283611
2	83	8.612784075325	0.904184632137
2	92	10.382468955869	0.075615426832
2	94	11.253045413114	5.845017134258
2	101	12.004161320511	3.704201966184
2	104	12.449246591586	4.988720090159
2	106	12.598038971213	4.133233235297
2	112	13.735248722245	1.922610934571
2	118	14.221012214181	0.367482210595
2	128	15.040428934068	0.567969470855
2	137	16.066360277453	0.07736484025
2	149	17.571998972292	0.710682340047
2	154	17.775157284565	9.401512574773
2	157	17.779543874614	7.50682488686
2	169	18.462468411444	17.56390802296
2	172	18.73246000778	16.910676487825
2	192	20.080853845692	0.081068244723
2	194	20.175904463038	0.420167352806
2	199	20.941531186729	15.049900802925
2	206	21.205445064689	0.244278524654
2	215	22.493283994753	0.57256947735
2	217	22.595248766616	7.441245883686
2	220	23.204508575402	5.408465707267
2	223	23.554796192894	7.379361435615
2	229	24.214201816428	6.530105108926
2	236	24.301908504505	0.052280612888
2	248	25.975152756818	0.529417065744
2	250	26.505177793505	11.477049320013
2	257	26.662751511666	0.118103353041
2	263	26.801088568857	0.069014344214
2	269	27.214175030863	8.904648528545
2	272	27.364959235405	0.189480982141
2	274	27.974963457982	9.871640237694
2	284	28.584112521262	0.019591578207
2	296	29.562909665356	16.140020748926
2	299	29.615873734591	21.130642410276
2	305	30.480080073059	13.533810657313
2	311	30.639260746917	6.460550313224
2	317	31.00542205761	1.596473321027
2	322	32.043882000003	10.743086587588
2	325	32.100247444365	12.302466116295
2	351	34.351877619794	0.488432037035
2	357	34.542655541481	0.281977540451
2	362	34.672606799408	5.963922426749
2	365	34.705306742005	0.561584150767
2	371	35.55875717705	0.23000697887
2	373	35.638729068806	15.284930333566
2	379	36.50055480469	16.538526880127
2	382	36.623536010568	5.921441257733
2	385	36.642532167974	6.350652479341
2	388	36.915829538114	7.629820854648
2	391	37.542839944292	5.782002476363
2	404	39.136311454761	14.383068614327
2	407	39.368600740428	1.052660650396
2	409	39.55225328184	14.73689515094
2	423	42.529210798067	0.464239248451
2	429	42.74223351221	0.019988149529
2	435	42.794421112116	0.672122636076
2	437	42.908640611309	0.166205120482
2	443	43.38934226235	0.064028382656
2	445	44.827340822323	10.749737462028
2	448	45.151361371677	25.208302016315
2	454	45.41515349671	14.888972289301
2	457	45.418449575381	12.785696253826
2	463	45.965505621839	11.475401031622
2	469	46.552651224538	8.686867374079
2	485	47.621169236078	13.716693331929
2	488	47.634932768524	0.418048765985
2	494	48.311946176109	12.166493983367
2	504	48.405351487214	0.355623968609
2	506	48.407467512912	0.049325154209
2	508	48.836115979601	14.197299120132
2	522	50.935195573352	0.004700375332
2	531	51.384720768899	0.07066535678
2	533	52.168352680018	1.324627964338
2	542	53.294199811673	20.033504909127
2	554	54.082024298865	0.920641235744
2	563	54.431473102628	0.010156229398
2	565	54.978776730132	8.63809521429
2	581	55.456979721053	0.230865448022
2	583	55.920311314319	17.953492688551
2	586	56.369087314908	9.427224021827
2	589	56.557176749269	9.68161085767
2	595	56.601046997995	9.414788256832
2	602	57.275807422184	0.28395207674
2	610	59.2015822626	8.295829486413
2	616	59.664167642112	7.332228540305
2	626	60.776327888168	0.509329365009
2	636	61.93844330938	0.569803981766
2	638	62.22697278396	1.110753449237
2	646	63.508058603655	15.142610335427
2	656	64.482684308179	0.061763323681
2	658	65.083640394854	23.543233396742
2	665	65.650333938643	19.692353371663
2	668	66.463620654018	0.840461102273
2	670	66.927118973061	13.553399217075
[...]
2	59878	9534.660034589309	0.325347170349
2	59884	9535.802080994028	0.936571653953
2	59890	9537.120051240927	0.397389922493
2	59900	9539.770250301116	2.376314714584
2	59902	9539.945306425809	1.175421371964
2	59908	9540.296568255177	0.243577259867
2	59921	9541.864878601629	1.555938001407
2	59924	9541.917886175672	0.724812677961
2	59936	9542.237628300644	0.989664824404
2	59939	9542.475611666858	0.411435259939
2	59942	9542.58382405735	0.517394721337
2	59948	9543.314358084407	0.060539907603
2	59950	9544.296334194639	2.357671494248
2	59956	9546.706620781567	0.151984164214
2	59966	9548.369987460832	0.664961230247
2	59968	9548.534707210822	0.399750563467
2	59974	9549.640258445955	0.253044541104
2	59980	9550.916755588147	0.710297012199
2	59986	9551.296570715962	0.012037457083
2	59996	9552.2502298635	0.839863333951
2	59998	9552.735015564749	0.689695094827
2	60004	9553.698068871147	0.099349086156
2	60010	9554.329332531118	0.246348096684
2	60016	9557.21309801227	0.019162651352
2	60022	9558.112575039443	0.005928881737
2	60035	9562.135668904177	0.33490741198
2	60041	9562.368296174291	0.331528161431
2	60044	9562.477481211367	0.137723029066
2	60050	9563.749633712558	2.7953883089
2	60052	9564.030402344017	0.823030839793
2	60062	9565.193374582787	0.000778704657
2	60064	9565.587345492438	0.61166739174
2	60074	9566.470951083533	0.059100605492
2	60076	9566.717912161498	0.737511790668
2	60086	9569.659162193699	1.484376597351
2	60092	9569.826650980549	0.202284816713
2	60098	9569.906988389344	0.002496674932
2	60100	9569.965997620419	0.299922031886
2	60106	9571.687586250093	0.869752482579
2	60112	9572.852998703538	0.184206243639
2	60118	9574.050317560383	0.406468848758
2	60128	9576.951484495301	0.084933153879
2	60130	9577.533509362912	1.305921085699
2	60143	9578.989661714439	0.346812573534
2	60146	9579.240396404035	1.009943761175
2	60152	9580.281182901008	1.560688135063
2	60158	9580.800825843764	0.29257709437
2	60160	9580.990310257181	0.863984185607
2	60166	9581.144111262276	0.046448023771
2	60172	9581.420108639774	0.015331394353
2	60178	9582.815673179074	1.036653451497
2	60191	9583.640653426709	0.321497947125
2	60194	9583.908529298089	0.544868259422
2	60203	9584.579154572842	0.1816764472
2	60206	9584.707701209899	1.297022151
2	60212	9585.517755706515	0.013959281718
2	60218	9585.709698725385	1.261016670782
2	60220	9585.836307685336	0.1642004257
2	60226	9587.135030630366	0.835035768388
2	60236	9588.197311798476	0.959411277217
2	60245	9588.601673983768	0.180493019999
2	60248	9588.931267876535	1.448716871241
2	60254	9589.359273551723	0.833979078273
2	60263	9590.62657597486	0.37433630309
2	60266	9590.772150876754	0.514417108563
2	60268	9591.424676282353	2.104214973622
2	60274	9594.948210119098	0.019870827641
2	60284	9595.702752116543	0.074740610441
2	60286	9595.742593720299	0.712835918247
2	60296	9596.025091032768	0.185008841491
2	60298	9596.041178175609	0.244648358888
2	60304	9596.806014312521	0.269655997986
2	60314	9597.993860752378	0.277517439188
2	60316	9598.625301443648	1.182224879439
2	60322	9600.044862655915	1.219456259154
2	60328	9601.062154889743	0.81840675718
2	60334	9602.578977374313	0.17010443603
2	60340	9603.330686076239	0.191428078568
2	60346	9604.135148060218	0.23089411376
2	60352	9604.947219581014	0.465254667395
2	60362	9605.8188556204	0.56052484691
2	60368	9607.079481848346	1.791896566132
2	60374	9607.462021265851	1.305344173217
2	60376	9607.657947232742	0.473209694997
2	60382	9613.463496586675	0.023670963508
2	60388	9614.158524167618	0.39406708928
2	60394	9616.680226869398	0.258455572214
2	60400	9618.856977683961	0.393485831462
2	60406	9619.043746742982	0.020502867958
2	60416	9621.386882466891	0.029322428159
2	60425	9621.632322870023	0.159194320954
2	60428	9621.669751473832	0.125877186856
2	60437	9622.238083687292	0.396606545866
2	60440	9622.454875792499	0.259200221132
2	60446	9623.076151625814	0.235241745113
2	60448	9623.316736987384	2.731856671112
2	60458	9624.185469007025	0.778345696987
2	60464	9624.835694813959	1.171808319327
2	60466	9624.836059261005	0.09057930741
2	60472	9628.726252931195	0.163542080615
2	60482	9629.625956072678	0.059888449766
2	60484	9629.825020772769	0.320019956142
2	60490	9630.261937943425	0.244318545842
2	60500	9630.553130434067	0.179831161774
2	60506	9630.805410810121	0.110656439222
2	60512	9631.590092006631	0.638650744184
2	60518	9631.82117322563	1.275371586975
2	60520	9631.929491263094	0.121605026991
2	60526	9632.596390455713	0.491293236902
2	60539	9636.009793858429	0.306913254458
2	60542	9636.031858786509	0.436125836527
2	60551	9636.538442904057	0.125975510753
2	60554	9636.858675223875	0.870667961712
2	60556	9636.86279778698	0.360987780656
2	60566	9638.63532499528	0.101218329559
2	60572	9639.456334259063	0.394204380145
2	60574	9640.214922361699	2.020428425295
2	60580	9643.616115738081	0.17343712426
2	60586	9645.519702809836	0.066083911556
2	60599	9646.259370942728	0.430994610447
2	60602	9646.691729425822	0.784153583518
2	60604	9646.76322602167	0.953898330548
2	60610	9647.294348846828	0.394096910606
2	60616	9648.04708725659	0.101957373765
2	60626	9648.769858932041	0.04791911495
2	60628	9648.936708677355	0.42039821088
2	60634	9650.095252860095	0.57386219665
2	60640	9651.682172672078	0.026414169118
2	60646	9653.927038694415	0.104836789841
2	60652	9654.202545107345	0.174224294675
2	60658	9654.376478323013	0.163510375686
2	60671	9655.04836507303	0.169663601559
2	60674	9655.086782863812	0.071282989595
2	60676	9655.354259271597	0.835928788934
2	60682	9656.43293335578	0.035201946348
2	60688	9657.371330595019	0.080914596573
2	60698	9658.638074694827	0.109584625267
2	60700	9658.66890240262	0.2505960072
2	60706	9658.985503119953	0.13395434021
2	60712	9659.295851909106	0.10165554631
2	60718	9659.49902300805	0.177434997853
2	60728	9660.342266715605	0.35145608149
2	60737	9661.841850816022	0.785085628609
2	60740	9661.936536411372	0.816921795351
2	60742	9662.105769920938	1.776249897001
2	60748	9663.156880773434	0.81189694975
2	60754	9664.870468644621	0.619097607526
2	60764	9665.581138663507	0.285205313222
2	60770	9666.32455102913	1.1811591121
2	60779	9666.945278202241	0.598813573122
2	60782	9667.104756281268	0.624157515398
2	60784	9667.227762908439	1.009074213287
2	60797	9667.730553655321	0.246964713437
2	60809	9668.500004297466	0.911558802537
2	60812	9668.554934913839	0.88431489004
2	60815	9668.993728747895	0.916928476345
2	60818	9669.404784446574	1.404448004772
2	60824	9670.450870100471	2.092361918406
2	60830	9671.20423929063	0.240057709124
2	60832	9671.439657441751	1.050923162053
2	60838	9671.94208461279	0.389528815505
2	60844	9674.064019174448	0.93527356278
2	60854	9674.907967380117	0.630095996705
2	60856	9675.38486686155	0.617396336204
2	60862	9676.220062457039	0.167912248348
2	60872	9679.896095582488	0.02800013343
2	60874	9680.321671040787	0.471833387946
2	60880	9682.647326906614	0.17630403634
2	60886	9682.833018375838	0.113317858169
2	60892	9684.863491422457	0.244707055608
2	60898	9687.441411650701	0.67014371477
2	60904	9688.924738250702	0.150918310312
2	60910	9690.525618043171	0.098564376634
2	60923	9691.598525502653	0.922693043683
2	60926	9691.894016318068	0.885464275008
2	60928	9691.971551255163	1.233128611975
2	60934	9692.111890358475	0.140186275398
2	60940	9693.524581411069	0.145420792306
2	60946	9694.227263418814	0.269081184461
2	60952	9698.109864722959	0.810863894688
2	60958	9701.279615486014	0.412176842528
2	60964	9703.960386281948	0.430588809543
2	60974	9704.378599724784	0.040428918171
2	60980	9705.418544144846	0.322191264462
2	60986	9706.011104620286	0.326388845021
2	60988	9706.166510881018	1.911944564643
2	60994	9706.632714511157	0.403688989769
2	61000	9708.207452831259	0.091925507121
2	61006	9708.716890652607	0.092515898225
2	61012	9708.996662755596	0.268455247077
2	61018	9712.605284205075	0.465977960025
2	61024	9715.34971906534	0.180343291813
2	61030	9717.194600355492	0.344098929897
2	61040	9719.965463978869	0.015451828415
2	61049	9720.858319143521	0.3135554717
2	61052	9721.17945558821	0.619790352618
2	61058	9721.872796494208	2.162153517825
2	61060	9722.206682489828	0.588513534521
2	61066	9723.224855749041	0.154895757944
2	61079	9724.803217740193	0.256241343348
2	61082	9724.853217636965	0.216831231832
2	61084	9725.112238453532	0.804554162681
2	61094	9726.296280418406	0.013373846241
2	61096	9726.642755411794	0.497207900428
2	61102	9728.074121036481	0.630804827279
2	61108	9729.537527417775	0.006107298807
2	61118	9731.911091309779	0.45400034688
2	61120	9732.682350833984	1.023552927227
2	61126	9734.862254199407	0.599340789325
2	61136	9736.468080354814	0.489540398456
2	61138	9736.651480614335	0.282633092515
2	61144	9736.864164360697	0.204883812287
2	61150	9738.533685568286	0.231252324829
2	61156	9739.122665252478	0.235022950877
2	61166	9739.70812036638	0.077351293995
2	61168	9739.977776124016	0.377387505
2	61174	9742.572436978486	1.068035302182
2	61180	9743.797015238953	0.491583385661
2	61186	9744.737036706512	0.234550997768
2	61199	9747.355193297776	2.014620303921
2	61205	9747.821932327864	0.881802513467
2	61208	9747.885136706031	1.029927462319
2	61210	9748.054339934612	0.238864715706
2	61216	9748.364669433381	0.230299083176
2	61222	9749.775921319811	0.034517896113
2	61228	9751.424775146553	0.209671206905
2	61234	9751.647978446325	0.140972101073
2	61240	9752.652043791662	0.468950177753
2	61250	9755.272313416181	0.17295569016
2	61252	9755.73381560829	0.636774853242
2	61258	9757.212630408493	0.394991513519
2	61268	9758.748672502042	0.773418544245
2	61270	9759.232909421189	0.51347682462
2	61280	9759.468692783501	0.123001226663
2	61282	9760.017142705255	0.680627852931
2	61292	9761.193552230332	0.159954109616
2	61294	9761.303032267163	0.503997307643
2	61300	9762.813972026194	0.131170011858
2	61306	9763.466565518121	0.157997756727
2	61316	9764.720780404156	0.228267778124
2	61318	9764.850109877593	0.318327107594
2	61324	9765.191108724316	0.130203025537
2	61330	9766.589677117419	0.215363380605
2	61340	9769.503851871755	0.072297270519
2	61346	9769.856882843632	0.121497181006
2	61348	9770.315885346462	1.134075983062
2	61354	9770.831396870982	0.031306293323
2	61364	9771.649006887173	0.617011803983
2	61366	9771.844246056232	0.376884785116
2	61376	9772.755677477517	0.017510663421
2	61378	9772.859755201606	0.32153163333
2	61388	9775.004227287287	1.626509342557
2	61397	9775.501633875256	0.929197674086
2	61400	9775.93298044763	0.858439473754
2	61402	9776.542225318616	1.31427552097
2	61412	9777.696835936715	0.075084557156
2	61414	9778.29679859665	0.750348167219
2	61424	9780.600022617173	1.778792826229
2	61426	9780.852459844892	1.356922025427
2	61436	9781.630406205319	0.172663133975
2	61442	9781.972611814069	0.000555862808
2	61444	9782.023127336828	0.595490639365
2	61450	9783.115135764432	0.332631556118
2	61456	9783.820732842187	0.451691538549
2	61466	9786.288439852674	0.071309157371
2	61468	9787.600912163866	2.556443690545
2	61474	9788.298577499954	0.046507459032
2	61480	9788.872187832898	0.277840405574
2	61490	9790.127638324518	0.207811003766
2	61492	9790.448477380343	0.69506327723
2	61498	9794.383522408033	0.542887901901
2	61511	9799.223881831178	0.787909689469
2	61514	9799.270896905636	1.101091157512
2	61516	9799.277449465889	0.251683993496
2	61522	9799.802149483608	0.295363279509
2	61528	9799.890433970542	0.019366597124
2	61534	9802.566977070561	0.092345175684
2	61540	9804.627613368533	0.736386075012
2	61546	9805.412256292447	0.095636628336
2	61552	9808.299740801583	0.40914441978
2	61562	9809.007382637022	0.085178513925
2	61568	9809.323803119999	0.477228038579
2	61574	9809.478182366379	0.030141450205
2	61589	9810.359759438321	1.231507023535
2	61595	9810.906722348723	1.258103246124
2	61601	9811.136069007584	0.985573598424
2	61607	9811.51542092625	1.818847680327
2	61610	9811.766054680952	1.280932825684
2	61616	9811.91601395718	1.644706613601
2	61619	9812.191458400269	0.75857043098
2	61622	9812.359907458636	1.384455670837
2	61628	9813.148051767587	1.373974965132
2	61630	9813.467852111614	0.372682430554
2	61636	9814.166337042637	0.257198974322
2	61646	9814.63135983548	0.029128087961
2	61648	9814.824399923914	0.250959902243
2	61654	9815.046456093311	0.007463280151
2	61660	9817.524098088869	0.680450053035
2	61670	9819.116525542943	0.081902683251
2	61672	9819.273070660513	0.268413269325
2	61682	9821.720047035644	0.507740336569
2	61684	9822.137225862259	1.026057149509
2	61690	9822.494108708261	0.321706772087
2	61696	9826.79138428264	0.220793605438
2	61702	9830.934293947386	0.211366415138
2	61708	9832.24473192827	0.232146212975
2	61718	9833.583431319296	0.237893457704
2	61720	9834.187468801135	1.088215644756
2	61726	9834.586393794857	0.009752716798
2	61732	9836.2273154032	0.078288128798
2	61738	9837.031544572287	0.212483191086
2	61744	9838.543267741655	0.090972135019
2	61754	9841.182008706404	0.865750391284
2	61760	9844.218457787521	3.335003134697
2	61762	9844.380896159801	0.203355205465
2	61768	9845.640087315409	0.331975142033
2	61774	9845.915619073121	0.024394622821
2	61780	9846.362008019591	0.108123762947
2	61786	9846.620457619792	0.130072693191
2	61792	9847.523752225904	0.245089224068
2	61802	9848.995299033924	0.254755133975
2	61804	9849.144732593358	0.875548579307
2	61810	9850.759152369021	0.676291727254
2	61816	9851.67972927718	0.37601341541
2	61822	9852.439034643331	0.54480031632
2	61828	9852.986906235253	0.109839641898
2	61834	9853.486785080447	0.019792527733
2	61840	9853.689491843834	0.141626253297
2	61846	9854.994100008742	0.053365539891
2	61856	9857.607700025366	0.606453273332
2	61858	9857.728037987825	0.421085293675
2	61871	9858.88401062709	0.257581171704
2	61874	9859.03489582921	0.246514135239
2	61880	9859.221245079215	0.789183937607
2	61886	9860.047602136278	0.986787666064
2	61892	9860.399251944713	0.416814796357
2	61901	9860.715663858843	0.320181356537
2	61904	9860.929375500814	0.220497926385
2	61906	9861.679386685763	1.109782999447
2	61916	9862.891331839538	0.148828886992
2	61918	9862.978808012296	0.26288689804
2	61924	9863.343156973681	0.071189505913
2	61930	9864.198955546431	0.423028072554
2	61940	9866.448951220785	1.271323780985
2	61942	9866.536217987913	0.523202993362
2	61948	9867.674326675528	0.545114400191
2	61954	9869.850201159302	0.977458808355
2	61964	9870.693310121094	0.23575472818
2	61966	9870.876146212867	0.602188187057
2	61976	9871.840133264966	0.066193092493
2	61978	9872.050517658255	0.813101595711
2	61988	9875.035190985342	0.355800065592
2	61990	9875.133271486385	1.025792330698
2	62006	9877.692457402981	0.394632439644
2	62009	9878.285394433768	0.790354097011
2	62012	9878.326090839306	0.794074864121
2	62014	9878.640472211401	1.279872876785
2	62020	9878.825642324899	0.145782151092
2	62026	9879.859798810432	0.620260490741
2	62032	9882.325799303051	0.048873148544
2	62038	9882.958853831197	0.151429505329
2	62044	9883.298426628254	0.153050046474
2	62050	9884.640324342484	0.615001953187
2	62056	9885.853254412457	0.026501739247
2	62062	9887.331786406174	0.211545629193
2	62072	9888.431459559979	0.038058806182
2	62074	9888.61558342807	0.277887892886
2	62080	9889.431921791675	0.306615193156
2	62086	9890.582887799881	0.379011118236
2	62099	9895.815922868702	1.767111100169
2	62102	9896.042429569241	1.033828358807
2	62108	9896.754891103524	0.157855603423
2	62110	9897.149519921444	1.465001168958
2	62116	9898.136277371008	0.081357850114
2	62122	9898.849158794203	0.508736053993
2	62128	9899.834395853669	0.112525738481
2	62138	9900.451181069238	0.108906910748
2	62144	9900.517140260529	0.033681402123
2	62146	9900.748368511033	0.441527221285
2	62156	9901.760865480344	0.297941453423
2	62158	9902.226161443017	0.505918952068
2	62164	9904.260911854685	0.049432310221
2	62170	9906.070403889396	0.398940662546
2	62180	9909.135169334828	0.147347897206
2	62182	9909.264332058515	0.287091209652
2	62188	9911.05295405962	0.09429732525
2	62194	9913.477118833757	0.133499362084
2	62204	9917.562066892039	0.016194683111
2	62206	9917.821635185788	1.134630994097
2	62212	9918.202518045619	0.079781948433
2	62218	9919.027917129215	0.365081826874
2	62224	9919.880382339848	0.573860689729
2	62230	9920.67819239472	0.264087366724
2	62240	9922.145757965367	0.137453895492
2	62242	9922.251271011153	0.16034196419
2	62248	9922.929015650052	0.524052680227
2	62258	9924.357074696161	0.623965512662
2	62264	9925.220321154849	0.607867197063
2	62270	9925.500250959897	0.274017583369
2	62272	9926.112795415006	1.758062429739
2	62278	9927.090513577366	0.140876183308
2	62284	9927.554401524673	0.382470661549
2	62290	9930.309843899502	0.648347847655
2	62296	9930.502579879943	0.06198407502
2	62302	9931.038925227686	0.030836222301
2	62308	9931.342880911602	0.126903353522
2	62314	9931.803608966251	0.271715142033
2	62320	9932.513510908872	0.550068347439
2	62326	9933.513314638467	0.004592843747
2	62332	9934.555713432861	0.386697576521
2	62338	9936.213265927429	0.171861500483
2	62344	9938.060321150768	0.203995773057
2	62350	9942.300377758307	0.283900806556
2	62360	9943.998536987772	0.256898809277
2	62362	9944.014067806146	0.308116027737
2	62368	9944.085474466481	0.045725019188
2	62374	9944.414698697521	0.086667257476
2	62384	9944.762328602356	0.339976669272
2	62386	9944.882954959538	0.244333792399
2	62396	9946.6882976304	0.73401151284
2	62405	9947.587763579234	0.437156217821
2	62408	9947.984617705231	0.581996717388
2	62410	9948.662099674898	2.857170116615
2	62416	9950.784073826248	0.025644538635
2	62426	9953.055961291536	0.564636065315
2	62428	9953.380058699433	0.416699324546
2	62434	9955.035441806051	0.362732052137
2	62440	9955.97364637108	0.72716815882
2	62446	9958.454338710773	0.763906838522
2	62452	9958.802892486541	0.122113794634
2	62462	9959.068948072022	0.102068426554
2	62468	9959.554509861566	0.200837909254
2	62470	9959.560877544096	0.538914685721
2	62476	9961.198515827692	0.303282168703
2	62482	9962.240223809819	0.022696067686
2	62488	9963.622363408211	0.274903593692
2	62494	9968.100187051123	1.422355791788
2	62500	9968.748187106491	0.581845229691
2	62506	9971.536390492177	0.855750537445
2	62516	9972.071183280263	0.493792300755
2	62518	9972.256084062137	0.439869013544
2	62531	9973.316139982275	0.336391848451
2	62537	9974.097183330527	0.859312655227
2	62540	9974.122559768175	1.767735186196
2	62542	9974.228782760981	0.868827419909
2	62548	9975.802864410556	0.053770963034
2	62554	9976.422679551053	0.100035262613
2	62560	9978.314027095468	0.209506315866
2	62566	9980.743650643526	0.30872574533
2	62576	9983.012784421623	0.449011220526
2	62582	9983.443735190355	1.100858991727
2	62588	9983.734284795209	0.514463955914
2	62590	9983.908595049839	0.243025080115
2	62596	9985.240609651117	0.553755787001
2	62602	9985.557182791125	0.258854587536
2	62615	9987.305476239498	0.46833488585
2	62618	9987.315329533196	0.383730665945
2	62620	9987.489493376077	0.459638153536
2	62626	9987.729370583258	0.043652516376
2	62632	9988.46631974758	0.065398380361
2	62638	9990.655772299186	0.427722061587
2	62644	9991.589641482351	0.037960960564
2	62650	9992.767980823969	0.30170403772
2	62660	9994.399652304542	0.436901945146
2	62666	9995.03703702772	1.146619137514
2	62672	9995.991135673919	0.169754996798
2	62674	9996.304331154581	1.878856743458
2	62680	9996.898131778126	0.524787407416
2	62690	10001.065419300618	0.214933399801
2	62696	10001.622928618526	0.381334969202
2	62698	10001.638741073949	1.364802120593
2	62704	10005.07998673672	0.939242256402
2	62710	10005.936078152588	0.20123580922
2	62716	10006.671678812833	0.004496929383
2	62726	10008.449237332499	0.260541172027
2	62732	10008.593664082697	0.057972050909
2	62741	10009.934509784662	0.665955118195
2	62744	10009.955852177215	2.313990077768
2	62746	10010.131075148739	0.343424928923
2	62752	10010.422816948866	0.092235971449
2	62758	10015.25628366453	0.063059758724
2	62764	10016.965148058439	0.597958687869
2	62774	10020.13358476602	0.248720040408
2	62776	10021.172957272984	2.500012025387
2	62786	10022.081014806444	0.72140824927
2	62788	10022.135629328087	0.531005660869
2	62794	10023.415504597375	0.273193164206
2	62800	10023.548517719625	0.025085878057
2	62806	10024.236845192036	0.263332672831

