version 2
run General-0-20181108-17:17:09-23860
attr configname General
attr datetime 20181108-17:17:09
attr experiment General
attr inifile omnetpp.ini
attr iterationvars ""
attr iterationvarsf ""
attr measurement ""
attr network ER_Optimize_One
attr processid 23860
attr repetition 0
attr replication #0
attr resultdir results
attr runnumber 0
attr seedset 0
param **.source.interArrivalTime exponential(1.0s)
param **.source1.interArrivalTime exponential(1.0s)
param **.server.serviceTime exponential(0.5s)
param **.server1.serviceTime exponential(0.5s)
param **.server2.serviceTime exponential(9s)
param **.server3.serviceTime exponential(9s)
param **.source.numJobs 10000
param **.source.jobName "\"patient\""
param **.source1.numJobs 500
param **.source1.jobName "\"patient_a\""
param **.passiveQueue2.capacity 10
param **.passiveQueue3.capacity 10
param **.server4.serviceTime exponential(10s)
param **.server5.serviceTime exponential(9s)
param **.server6.serviceTime exponential(9s)
param **.server7.serviceTime exponential(9s)
param **.server8.serviceTime exponential(9s)
param **.server9.serviceTime exponential(9s)
param **.source.jobType 1
param **.source1.jobType 0

vector 0 ER_Optimize_One.passiveQueue2 queueLength:vector ETV
attr interpolationmode sample-hold
attr title "queue length, vector"
vector 1 ER_Optimize_One.passiveQueue3 queueLength:vector ETV
attr interpolationmode sample-hold
attr title "queue length, vector"
vector 2 ER_Optimize_One.sink lifeTime:vector ETV
attr interpolationmode none
attr title "lifetime of arrived jobs, vector"
attr unit s
0	0	0	0
0	349	34.26067800103	1
0	350	34.351877619794	0
1	0	0	0
1	81	8.485231324315	1
1	86	10.272718987754	2
1	93	11.253045413114	1
1	100	12.004161320511	0
1	131	15.15400288293	1
1	140	16.175434757279	2
1	147	16.946269415746	3
1	152	17.684096707502	4
1	153	17.775157284565	3
1	156	17.779543874614	2
1	161	17.796042868135	3
1	164	18.103323220288	4
1	167	18.309526502318	5
1	168	18.462468411444	4
1	171	18.73246000778	3
1	180	19.79778132807	4
1	183	19.943059355362	5
1	186	19.962027924563	6
1	197	20.35379873524	7
1	198	20.941531186729	6
1	209	21.300795412415	7
1	216	22.595248766616	6
1	219	23.204508575402	5
1	222	23.554796192894	4
1	227	24.178710433693	5
1	228	24.214201816428	4
1	239	24.753242840434	5
1	242	24.8153581309	6
1	249	26.505177793505	5
1	268	27.214175030863	4
1	273	27.974963457982	3
1	278	28.315571815355	4
1	287	28.708684372659	5
1	290	29.286008683466	6
1	295	29.562909665356	5
1	298	29.615873734591	4
1	303	30.291879688633	5
1	304	30.480080073059	4
1	309	30.526181207409	5
1	310	30.639260746917	4
1	315	30.702094752835	5
1	320	31.760837467929	6
1	321	32.043882000003	5
1	324	32.100247444365	4
1	329	32.632753321555	5
1	332	33.260694902546	6
1	339	33.904475904149	7
1	342	34.077603360295	8
1	355	34.490104590217	9
1	360	34.638816859469	10
1	361	34.672606799408	9
1	372	35.638729068806	8
1	377	36.145452192742	9
1	378	36.50055480469	8
1	381	36.623536010568	7
1	384	36.642532167974	6
1	387	36.915829538114	5
1	390	37.542839944292	4
1	395	37.865783850459	5
1	398	37.966818625768	6
1	403	39.136311454761	5
1	408	39.55225328184	4
1	413	41.540406998112	5
1	444	44.827340822323	4
1	447	45.151361371677	3
1	452	45.302334282616	4
1	453	45.41515349671	3
1	456	45.418449575381	2
1	461	45.95798056698	3
1	462	45.965505621839	2
1	467	46.340681515842	3
1	468	46.552651224538	2
1	473	46.875565891599	3
1	476	46.941863293081	4
1	479	47.186258741163	5
1	484	47.621169236078	4
1	493	48.311946176109	3
1	502	48.365448268228	4
1	507	48.836115979601	3
1	516	50.905752776187	4
1	525	51.231093191716	5
1	536	52.331939101807	6
1	541	53.294199811673	5
1	546	53.373719755986	6
1	549	53.681237479748	7
1	552	53.883587918315	8
1	557	54.390788041572	9
1	564	54.978776730132	8
1	573	55.273917083531	9
1	576	55.278623624023	10
1	582	55.920311314319	9
1	585	56.369087314908	8
1	588	56.557176749269	7
1	593	56.569599272226	8
1	594	56.601046997995	7
1	605	57.898357145976	8
1	608	58.184378118484	9
1	609	59.2015822626	8
1	614	59.595402527778	9
1	615	59.664167642112	8
1	620	60.099746334366	9
1	641	62.363479910227	10
1	645	63.508058603655	9
1	650	63.552483332009	10
1	657	65.083640394854	9
1	664	65.650333938643	8
1	669	66.927118973061	7
1	678	67.395489915253	8
1	679	67.505754630198	7
1	684	67.682900391323	8
1	685	67.733485479185	7
1	690	68.05863923373	8
1	697	68.260821594321	7
1	702	69.087857272305	6
1	717	70.426836408192	5
1	722	71.423009686781	6
1	723	71.472287702853	5
1	728	71.925320485042	6
1	731	72.889774050536	7
1	740	73.822176930943	8
1	753	74.457304646574	9
1	758	74.799904271272	10
1	766	75.340577067136	9
1	773	76.245915013632	10
1	777	76.434851614061	9
1	782	76.500036090575	10
1	813	78.788371229533	9
1	818	78.921190213631	10
1	822	79.62286880427	9
1	825	79.722009504001	8
1	828	79.888005013527	7
1	831	80.369197522369	6
1	834	80.8088905472	5
1	837	80.99351143156	4
1	846	81.439905701301	5
1	857	82.209982560847	6
1	860	82.315595204476	7
1	863	82.420477040076	8
1	874	83.845565459625	7
1	877	83.86986573962	6
1	884	84.240264249349	5
1	887	84.623093378197	4
1	892	84.939759170159	5
1	895	85.326696520031	4
1	898	85.521351485224	3
1	903	85.649677097383	4
1	906	85.781860806998	5
1	911	86.396349129648	4
1	916	86.946959529034	3
1	919	87.164198902168	2
1	924	87.291684262607	3
1	929	87.442475272801	4
1	932	87.965345302889	5
1	935	87.999132088441	6
1	938	88.070807472754	7
1	963	91.716985432264	6
1	968	92.120654311559	7
2	10	1.725676610603	0.929802106037
2	20	2.54030847581	0.488503213197
2	30	2.845417831144	0.242564081861
2	40	3.709965878658	0.525462021838
2	42	3.800191120368	0.159178070421
2	52	6.140576051312	3.531591391375
2	58	7.282866613486	0.326941283611
2	83	8.612784075325	0.904184632137
2	92	10.382468955869	0.075615426832
2	94	11.253045413114	5.845017134258
2	101	12.004161320511	3.704201966184
2	104	12.449246591586	4.988720090159
2	106	12.598038971213	4.133233235297
2	112	13.735248722245	1.922610934571
2	118	14.221012214181	0.367482210595
2	128	15.040428934068	0.567969470855
2	137	16.066360277453	0.07736484025
2	149	17.571998972292	0.710682340047
2	154	17.775157284565	9.401512574773
2	157	17.779543874614	7.50682488686
2	169	18.462468411444	17.56390802296
2	172	18.73246000778	16.910676487825
2	192	20.080853845692	0.081068244723
2	194	20.175904463038	0.420167352806
2	199	20.941531186729	15.049900802925
2	206	21.205445064689	0.244278524654
2	215	22.493283994753	0.57256947735
2	217	22.595248766616	7.441245883686
2	220	23.204508575402	5.408465707267
2	223	23.554796192894	7.379361435615
2	229	24.214201816428	6.530105108926
2	236	24.301908504505	0.052280612888
2	248	25.975152756818	0.529417065744
2	250	26.505177793505	11.477049320013
2	257	26.662751511666	0.118103353041
2	263	26.801088568857	0.069014344214
2	269	27.214175030863	8.904648528545
2	272	27.364959235405	0.189480982141
2	274	27.974963457982	9.871640237694
2	284	28.584112521262	0.019591578207
2	296	29.562909665356	16.140020748926
2	299	29.615873734591	21.130642410276
2	305	30.480080073059	13.533810657313
2	311	30.639260746917	6.460550313224
2	317	31.00542205761	1.596473321027
2	322	32.043882000003	10.743086587588
2	325	32.100247444365	12.302466116295
2	351	34.351877619794	0.488432037035
2	357	34.542655541481	0.281977540451
2	362	34.672606799408	5.963922426749
2	365	34.705306742005	0.561584150767
2	371	35.55875717705	0.23000697887
2	373	35.638729068806	15.284930333566
2	379	36.50055480469	16.538526880127
2	382	36.623536010568	5.921441257733
2	385	36.642532167974	6.350652479341
2	388	36.915829538114	7.629820854648
2	391	37.542839944292	5.782002476363
2	404	39.136311454761	14.383068614327
2	407	39.368600740428	1.052660650396
2	409	39.55225328184	14.73689515094
2	423	42.529210798067	0.464239248451
2	429	42.74223351221	0.019988149529
2	435	42.794421112116	0.672122636076
2	437	42.908640611309	0.166205120482
2	443	43.38934226235	0.064028382656
2	445	44.827340822323	10.749737462028
2	448	45.151361371677	25.208302016315
2	454	45.41515349671	14.888972289301
2	457	45.418449575381	12.785696253826
2	463	45.965505621839	11.475401031622
2	469	46.552651224538	8.686867374079
2	485	47.621169236078	13.716693331929
2	488	47.634932768524	0.418048765985
2	494	48.311946176109	12.166493983367
2	504	48.405351487214	0.355623968609
2	506	48.407467512912	0.049325154209
2	508	48.836115979601	14.197299120132
2	522	50.935195573352	0.004700375332
2	531	51.384720768899	0.07066535678
2	533	52.168352680018	1.324627964338
2	542	53.294199811673	20.033504909127
2	554	54.082024298865	0.920641235744
2	563	54.431473102628	0.010156229398
2	565	54.978776730132	8.63809521429
2	581	55.456979721053	0.230865448022
2	583	55.920311314319	17.953492688551
2	586	56.369087314908	9.427224021827
2	589	56.557176749269	9.68161085767
2	595	56.601046997995	9.414788256832
2	602	57.275807422184	0.28395207674
2	610	59.2015822626	8.295829486413
2	616	59.664167642112	7.332228540305
2	626	60.776327888168	0.509329365009
2	636	61.93844330938	0.569803981766
2	638	62.22697278396	1.110753449237
2	646	63.508058603655	15.142610335427
2	656	64.482684308179	0.061763323681
2	658	65.083640394854	23.543233396742
2	665	65.650333938643	19.692353371663
2	668	66.463620654018	0.840461102273
2	670	66.927118973061	13.553399217075
2	680	67.505754630198	16.274661438482
2	686	67.733485479185	14.052247999437
2	692	68.144727808343	1.064749698034
2	698	68.260821594321	13.870033552749
2	701	68.649190832371	0.443930705218
2	703	69.087857272305	23.785522989689
2	710	69.765576946446	0.380933885648
2	716	70.211471142536	0.131028620838
2	718	70.426836408192	15.152919324661
2	724	71.472287702853	16.19366407883
2	737	73.21560077003	0.009689890674
2	750	74.37877516984	0.169832366291
2	755	74.479537346311	0.629521758632
2	767	75.340577067136	18.77097779491
2	770	75.568243537242	0.279980535037
2	778	76.434851614061	14.071371703834
2	795	77.118106747895	0.446864539153
2	803	77.535310090338	0.427039867822
2	809	78.438747012605	0.52792480433
2	814	78.788371229533	19.192968701755
2	823	79.62286880427	12.227378889017
2	826	79.722009504001	19.622263169635
2	829	79.888005013527	21.703626895043
2	832	80.369197522369	26.485609604054
2	835	80.8088905472	8.883570062158
2	838	80.99351143156	12.93487219783
2	852	81.981960349942	0.297036749162
2	854	82.20380647652	0.820448788963
2	873	83.528246858573	0.626303762456
2	875	83.845565459625	12.422555772844
2	878	83.86986573962	16.186965348297
2	885	84.240264249349	55.924692433994
2	888	84.623093378197	8.123057287622
2	894	84.982705778336	1.012954408552
2	896	85.326696520031	9.080781506399
2	899	85.521351485224	12.631577434688
2	912	86.396349129648	7.475158916017
2	915	86.71898401203	3.382695259969
2	917	86.946959529034	29.048602383058
2	920	87.164198902168	4.954216341321
2	926	87.320921907298	1.000993247763
2	944	88.437493829326	0.233636283205
2	950	89.671724676475	0.272428564072
2	956	90.029551460342	0.025956276091
2	962	91.511385310459	0.227455922396
2	964	91.716985432264	9.296508392188

