version 2
run General-0-20181108-16:58:16-23188
attr configname General
attr datetime 20181108-16:58:16
attr experiment General
attr inifile omnetpp.ini
attr iterationvars ""
attr iterationvarsf ""
attr measurement ""
attr network ER_Optimize_One
attr processid 23188
attr repetition 0
attr replication #0
attr resultdir results
attr runnumber 0
attr seedset 0
param **.source.interArrivalTime exponential(1.0s)
param **.source1.interArrivalTime exponential(1.0s)
param **.server.serviceTime exponential(0.5s)
param **.server1.serviceTime exponential(0.5s)
param **.server2.serviceTime exponential(0.9s)
param **.server3.serviceTime exponential(0.9s)
param **.source.numJobs 10000
param **.source.jobName "\"patient\""
param **.source1.numJobs 500
param **.source1.jobName "\"patient_a\""
param **.passiveQueue2.capacity 10
param **.passiveQueue3.capacity 10
param **.server4.serviceTime exponential(10s)
param **.server5.serviceTime exponential(12s)
param **.server6.serviceTime exponential(12s)
param **.server7.serviceTime exponential(12s)
param **.server8.serviceTime exponential(12s)
param **.server9.serviceTime exponential(12s)
param **.source.jobType 1
param **.source1.jobType 0

vector 0 ER_Optimize_One.passiveQueue2 queueLength:vector ETV
attr interpolationmode sample-hold
attr title "queue length, vector"
vector 1 ER_Optimize_One.passiveQueue3 queueLength:vector ETV
attr interpolationmode sample-hold
attr title "queue length, vector"
vector 2 ER_Optimize_One.sink lifeTime:vector ETV
attr interpolationmode none
attr title "lifetime of arrived jobs, vector"
attr unit s
0	0	0	0
0	279	25.946614915921	1
0	280	26.16145860562	0
0	289	26.325576880204	1
0	290	26.503107572389	0
0	457	39.890679448887	1
0	458	39.985332414536	0
0	463	40.241855538268	1
0	464	40.313155556718	0
0	469	40.368244174693	1
0	476	40.750945123555	2
0	477	40.896592319992	1
0	480	40.929741020733	0
0	577	48.045286382122	1
0	578	48.076223546387	0
0	1001	89.26985366282	1
0	1002	89.535714651377	0
0	1077	93.60737116891	1
0	1078	93.774013712127	0
0	1173	101.172782660562	1
0	1176	101.466290312485	2
0	1177	101.485338848052	1
0	1180	101.51522932951	0
0	1217	102.822714546766	1
0	1220	102.89233221784	2
0	1221	102.990746318557	1
0	1228	103.559515571327	0
0	1709	146.475802971394	1
0	1712	147.04064161166	0
0	1717	147.126600313753	1
0	1720	147.74097946014	0
0	1835	158.538071031229	1
0	1844	158.592696725397	0
0	1919	162.969799010646	1
0	1926	163.220029196274	0
0	1979	165.66376692214	1
0	1982	166.004178358194	0
0	2045	169.817187461068	1
0	2046	170.30731205129	0
0	2353	196.540090594271	1
0	2354	196.689571315926	0
0	2451	204.46869796115	1
0	2452	204.788794926425	0
0	2463	205.099208282842	1
0	2472	205.313466009388	0
0	2477	205.389481697965	1
0	2478	205.421985880427	0
0	2485	205.52995741492	1
0	2488	205.542066659982	2
0	2489	205.657969924313	1
0	2492	205.719327427971	0
0	2661	220.900067124368	1
0	2662	220.933370796728	0
0	2787	235.435394997096	1
0	2790	235.597353027508	0
0	3121	265.488877601209	1
0	3130	265.96218259844	0
0	3449	293.531452953199	1
0	3452	293.790420264573	0
0	3649	311.503058379169	1
0	3656	311.878569465935	0
0	3661	312.112820552027	1
0	3664	312.161197106591	0
0	4077	350.079084135301	1
0	4080	350.307445969485	0
0	4099	350.582573269309	1
0	4100	350.844708761155	0
0	4173	356.689206330741	1
0	4174	356.72277560752	0
0	4185	357.419328350997	1
0	4186	357.459082038792	0
0	4209	358.311752376191	1
0	4210	358.383080122869	0
0	4443	374.041016064873	1
0	4448	374.237736753502	2
0	4449	374.248790096633	1
0	4452	374.506657543448	0
0	4551	384.263910779581	1
0	4552	384.308925791198	0
0	4779	405.883386838016	1
0	4794	406.166258850464	0
0	5045	425.710883125023	1
0	5054	426.149701805324	0
0	5609	473.411059216216	1
0	5614	473.811935429862	2
0	5617	473.991699518035	3
0	5624	474.239650936442	2
0	5643	475.235279182111	1
0	5648	475.486735390451	0
0	5653	475.673063913282	1
0	5654	475.728456175153	0
0	5659	476.04534569642	1
0	5660	476.078791696232	0
0	5709	479.522735244207	1
0	5712	479.720936564758	2
0	5713	479.782595439666	1
0	5716	479.994541609828	0
0	6006	511.708144534973	1
0	6007	511.926075742211	0
0	6072	521.166254492795	1
0	6073	521.619559518551	0
0	6102	523.279473605403	1
0	6103	523.766688906277	0
0	6228	550.056719930469	1
0	6229	550.589095121074	0
0	6240	550.955803164218	1
0	6241	550.980098333491	0
0	6318	562.588929880609	1
0	6319	562.831554992869	0
0	6372	570.3686942363	1
0	6375	570.380114322844	2
0	6376	570.399240727252	1
0	6379	570.737079375658	0
0	6396	571.318134349817	1
0	6397	571.629686434451	0
0	6516	595.780168873012	1
0	6517	595.85101066173	0
0	6546	600.741121665244	1
0	6547	600.948572327772	0
0	6642	622.634707388979	1
0	6643	622.992354772739	0
0	6648	623.274150382377	1
0	6649	623.2989800335	0
0	6702	626.911214518755	1
0	6703	627.076744942685	0
0	6786	650.866570555468	1
0	6787	650.910669872024	0
0	6846	662.579671718467	1
0	6849	662.829696004035	2
0	6850	662.854690538561	1
0	6853	663.400694923735	0
0	7110	704.259465221576	1
0	7111	704.526053575889	0
0	7188	718.845446438627	1
0	7189	718.903259239293	0
0	7302	737.886957626789	1
0	7303	738.625117858122	0
0	7386	759.830683736554	1
0	7387	759.883139808043	0
0	7392	759.954614070197	1
0	7393	759.958047605042	0
0	7404	760.401884645398	1
0	7405	760.562441049403	0
0	7434	762.714330023806	1
0	7435	762.780259942475	0
0	7440	763.040221555872	1
0	7441	763.090750173167	0
0	7536	782.398826799538	1
0	7537	782.525434657876	0
0	7626	803.977154891087	1
0	7627	804.448592797341	0
0	7698	815.305625086202	1
0	7699	815.613463325271	0
0	7704	815.651186822916	1
0	7705	815.680692754214	0
0	7728	820.329444958092	1
0	7729	820.49273181372	0
0	7734	820.731818169373	1
0	7735	820.810165007055	0
0	7764	826.424702201275	1
0	7765	826.923789175082	0
0	7782	829.448435329869	1
0	7783	829.789523472242	0
0	7938	866.759934436008	1
0	7939	867.360752628885	0
0	7968	873.857461625503	1
0	7969	873.956508435438	0
0	8034	886.445120580798	1
0	8035	886.478653878154	0
0	8106	897.463079492978	1
0	8107	897.562467458493	0
0	8136	900.58680376208	1
0	8137	900.743721995932	0
0	8244	921.187390021503	1
0	8245	921.670917825397	0
0	8484	963.827596955101	1
0	8487	963.88955529907	2
0	8488	963.902759182319	1
0	8491	964.020532047285	0
0	8514	967.466356302635	1
0	8517	967.517123153384	2
0	8518	967.742946359851	1
0	8523	967.75449439262	2
0	8524	967.796658022882	1
0	8529	967.80046481168	2
0	8530	967.868693470198	1
0	8533	968.05898786839	0
0	8550	970.418515148362	1
0	8551	970.838198462322	0
0	8802	1025.715302798903	1
0	8803	1026.266436772276	0
0	8808	1026.828605559207	1
0	8809	1026.871331888932	0
0	8946	1050.362570865997	1
0	8947	1050.591829664499	0
0	8982	1057.570281404468	1
0	8985	1057.613568985642	2
0	8988	1057.775498132293	3
0	8989	1057.917610053351	2
0	8994	1058.033933412336	3
0	8995	1058.518823578044	2
0	9000	1058.62595701452	3
0	9001	1058.730776273611	2
0	9004	1058.834249740239	1
0	9007	1058.95965103972	0
0	9060	1072.146238948216	1
0	9063	1072.366864173418	2
0	9064	1072.593710471525	1
0	9067	1072.832545989367	0
0	9204	1103.551648323246	1
0	9205	1103.552797328109	0
0	9342	1131.891219341309	1
0	9343	1131.962092943193	0
0	9408	1142.589264796134	1
0	9409	1142.694437823963	0
0	9414	1143.160445681509	1
0	9415	1143.458774668905	0
0	9450	1146.178575235142	1
0	9453	1146.47674099652	2
0	9454	1146.51284443183	1
0	9459	1146.51673240017	2
0	9460	1147.099385285777	1
0	9463	1147.186852619672	0
0	9564	1172.538442378178	1
0	9565	1172.592020492188	0
0	9798	1219.621806157865	1
0	9799	1219.6437887415	0
0	9906	1235.163613854248	1
0	9909	1235.383661082372	2
0	9910	1235.532663015695	1
0	9913	1235.908385099186	0
0	10014	1251.748716811142	1
0	10015	1252.047807788924	0
0	10038	1255.932395437354	1
0	10039	1255.970809446504	0
0	10272	1294.081789453893	1
0	10273	1294.097156538767	0
0	10296	1296.637914285654	1
0	10297	1296.713421612578	0
0	10368	1307.547487769396	1
0	10369	1307.920814368344	0
0	10482	1322.500714397852	1
0	10485	1322.713566228774	2
0	10486	1322.89262069177	1
0	10489	1322.920561692776	0
0	10710	1361.133610270309	1
0	10711	1361.382109967516	0
0	10824	1380.73943294207	1
0	10825	1380.902096844461	0
0	10830	1381.133742761358	1
0	10831	1381.303074225459	0
0	10896	1396.592034468659	1
0	10899	1396.605440039679	2
0	10900	1396.687602275578	1
0	10903	1397.153636936273	0
0	10908	1397.232296903317	1
0	10909	1397.646290498692	0
0	11100	1434.203645849777	1
0	11101	1434.211400922666	0
0	11262	1458.967593178288	1
0	11263	1459.218679288134	0
0	11268	1459.884345070282	1
0	11269	1459.948709149708	0
0	11274	1460.139239376754	1
0	11275	1460.154496143172	0
0	11298	1462.549145829555	1
0	11299	1463.303993114634	0
0	11478	1495.935538311208	1
0	11479	1496.005630611684	0
0	11490	1496.7534287775	1
0	11491	1496.815276044283	0
0	11520	1499.280975218308	1
0	11521	1499.320757744454	0
0	11538	1500.353660141182	1
0	11539	1500.426619620472	0
0	11682	1523.303805386731	1
0	11683	1523.417726274251	0
0	11760	1541.487232928873	1
0	11761	1541.490945028039	0
0	11796	1548.020187641515	1
0	11797	1548.140337871984	0
0	11802	1548.197011911372	1
0	11803	1548.63991693726	0
0	11856	1556.475866672644	1
0	11857	1557.298701915674	0
0	12084	1587.384202549285	1
0	12085	1587.652332276545	0
0	12090	1587.701039236068	1
0	12091	1587.738139913534	0
0	12198	1604.150315050467	1
0	12199	1604.267123373629	0
0	12252	1615.407204774568	1
0	12253	1615.535289861841	0
0	12324	1631.043263302352	1
0	12327	1631.04333700202	2
0	12328	1631.209010137713	1
0	12331	1631.355685921095	0
0	12354	1634.779864984677	1
0	12355	1634.875463323678	0
0	12444	1646.313102644525	1
0	12445	1646.379924666642	0
0	12666	1684.510353821362	1
0	12667	1684.662186515167	0
0	12672	1684.78109963853	1
0	12673	1684.812923252051	0
0	12678	1684.983833473624	1
0	12679	1685.028267666072	0
0	12756	1696.283115940026	1
0	12757	1696.473666121155	0
0	12930	1727.099223921937	1
0	12931	1727.138441856062	0
0	12936	1727.991505000478	1
0	12937	1728.288661887431	0
0	12942	1728.364671470431	1
0	12943	1728.436954353694	0
0	12948	1728.650058262915	1
0	12951	1728.97569887483	2
0	12952	1729.057355436943	1
0	12955	1729.11246409984	0
0	12960	1729.168622257743	1
0	12961	1729.249013742425	0
0	13194	1779.81633937004	1
0	13197	1779.924004461365	2
0	13198	1780.422799552262	1
0	13201	1780.445479464313	0
0	13206	1780.780621619437	1
0	13207	1780.880051018729	0
0	13410	1817.718731024604	1
0	13411	1817.798134260628	0
0	13416	1818.004315924283	1
0	13417	1818.228672940533	0
0	13422	1818.328378337006	1
0	13425	1818.460250177722	2
0	13428	1818.896420993321	3
0	13429	1819.025828377126	2
0	13432	1819.439790373684	1
0	13437	1819.518260826529	2
0	13438	1819.977574881842	1
0	13441	1820.53006495825	0
0	13446	1820.542709599094	1
0	13449	1820.617943972367	2
0	13450	1820.678562727578	1
0	13453	1820.681317709017	0
0	13470	1821.993097896324	1
0	13471	1822.096463356661	0
0	13554	1842.859720399525	1
0	13555	1842.875120120497	0
0	13656	1857.968300889325	1
0	13657	1858.027547765456	0
0	14028	1928.458218120177	1
0	14029	1928.699289884799	0
0	14094	1938.490310721701	1
0	14095	1938.501191417536	0
0	14100	1938.562681765987	1
0	14101	1938.568045085669	0
0	14106	1938.819500092729	1
0	14107	1939.2359606352	0
0	14112	1939.475547974572	1
0	14113	1939.631384763841	0
0	14118	1939.76526242454	1
0	14119	1939.821883951047	0
0	14154	1949.37110111516	1
0	14157	1949.71594084719	2
0	14158	1949.843009539369	1
0	14161	1950.591809518542	0
0	14166	1951.153866980835	1
0	14167	1951.236989537028	0
0	14172	1951.473176928109	1
0	14173	1951.868655872023	0
0	14292	1971.324305357396	1
0	14295	1971.590380088506	2
0	14296	1971.616340955836	1
0	14299	1971.66509146591	0
0	14508	2001.577194552258	1
0	14509	2001.721286639643	0
0	14568	2010.607019770479	1
0	14569	2010.854134019896	0
0	14622	2023.230702420891	1
0	14623	2023.304073124889	0
0	14628	2023.332415436855	1
0	14629	2023.804279277755	0
0	14640	2024.432310082935	1
0	14641	2024.960172442699	0
0	14646	2025.09571454939	1
0	14647	2025.162227611069	0
0	14652	2026.245173423171	1
0	14653	2026.376212802832	0
0	15042	2089.339673038321	1
0	15043	2089.345348414208	0
0	15180	2112.077561485654	1
0	15181	2112.184959715854	0
0	15354	2153.843984244271	1
0	15355	2153.922450570125	0
0	15396	2158.529833183873	1
0	15397	2158.757396011834	0
0	15462	2170.397945350264	1
0	15463	2170.46561553908	0
0	15702	2209.263398840042	1
0	15703	2209.767281856118	0
0	15834	2236.150469678072	1
0	15835	2236.48783961572	0
0	15918	2250.981375958495	1
0	15919	2251.200803529333	0
0	15936	2257.429984013564	1
0	15937	2257.441591420506	0
0	15942	2257.663700786431	1
0	15943	2257.758621975429	0
0	16200	2302.741504784138	1
0	16201	2302.771369790868	0
0	16386	2330.563187865122	1
0	16387	2330.851753420908	0
0	16488	2344.399106783573	1
0	16489	2345.134044967988	0
0	16506	2355.134716515237	1
0	16507	2355.143134243558	0
0	16518	2356.323933939834	1
0	16519	2356.662514273005	0
0	16542	2359.275784262645	1
0	16543	2359.312669938183	0
0	16584	2365.199541981629	1
0	16585	2365.219586717972	0
0	16596	2365.887703257153	1
0	16597	2366.048531854655	0
0	16776	2388.028412856323	1
0	16777	2388.059561969651	0
0	16812	2392.809785059607	1
0	16813	2392.826090543747	0
0	16818	2393.015952913802	1
0	16819	2393.165734693235	0
0	16854	2403.379625226424	1
0	16857	2403.545452726523	2
0	16858	2403.588811117955	1
0	16861	2404.10837945233	0
0	16896	2411.072194255145	1
0	16897	2411.29855205909	0
0	16914	2412.504183950186	1
0	16915	2413.26773993995	0
0	17238	2476.842296455429	1
0	17239	2476.886894079859	0
0	17400	2507.254880317918	1
0	17401	2507.5190589747	0
0	17406	2507.767107180655	1
0	17407	2507.928652420824	0
0	17484	2519.780610432494	1
0	17487	2519.806143820616	2
0	17490	2520.668115696289	3
0	17491	2520.718726522019	2
0	17494	2520.754099016749	1
0	17497	2521.234383400153	0
0	17688	2558.252652962315	1
0	17689	2558.297413736541	0
0	17718	2563.4514849572	1
0	17721	2563.486190178493	2
0	17722	2563.578857396042	1
0	17725	2564.124925621843	0
0	17784	2573.91340285585	1
0	17787	2574.050815955795	2
0	17790	2574.08973747405	3
0	17793	2574.1471450204	4
0	17796	2574.249331157361	5
0	17797	2574.34553717556	4
0	17800	2574.429369984653	3
0	17803	2574.501764366797	2
0	17806	2574.665630047402	1
0	17809	2575.298056259456	0
0	17844	2579.51210687436	1
0	17845	2579.598591664228	0
0	17922	2591.041104564263	1
0	17923	2591.471717196885	0
0	17952	2594.421263123003	1
0	17953	2594.519321991706	0
0	18090	2616.040327364101	1
0	18091	2616.320030754057	0
0	18204	2639.285475242602	1
0	18205	2639.43560391693	0
0	18222	2640.486456705805	1
0	18223	2640.773730422221	0
0	18228	2640.846289884469	1
0	18229	2640.860540261605	0
0	18456	2673.393278497538	1
0	18457	2673.746022533469	0
0	18462	2673.874764978559	1
0	18463	2674.114803044154	0
0	18468	2674.427298068782	1
0	18469	2674.654837998791	0
0	18516	2680.900423713317	1
0	18517	2680.987731689628	0
0	18660	2714.77137221774	1
0	18661	2714.827425806923	0
0	18690	2718.957276643414	1
0	18691	2718.989203507677	0
0	18762	2728.886875678585	1
0	18765	2728.936147664785	2
0	18766	2729.364792074764	1
0	18769	2729.445920033599	0
0	18972	2767.028228959584	1
0	18973	2767.031005493531	0
0	19128	2784.803154500542	1
0	19131	2784.821494681561	2
0	19132	2784.848907342236	1
0	19135	2785.066299810055	0
0	19230	2803.135362711968	1
0	19231	2803.168152178199	0
0	19410	2825.351446372546	1
0	19411	2825.826018900066	0
0	19446	2831.970115352962	1
0	19447	2832.065555369367	0
0	19602	2871.431879980262	1
0	19603	2872.087694787842	0
0	19746	2896.799013217028	1
0	19749	2897.134956024341	2
0	19750	2897.24268740924	1
0	19753	2897.36338967466	0
0	19806	2907.585171850946	1
0	19807	2907.701351795789	0
0	19908	2926.0674664158	1
0	19909	2926.305924655704	0
0	19914	2926.339111340128	1
0	19915	2926.424198415567	0
0	20052	2957.235477846898	1
0	20053	2957.368827824688	0
0	20058	2957.615765668305	1
0	20059	2958.008486085834	0
0	20124	2970.331676324276	1
0	20125	2970.708290757827	0
0	20130	2970.87751965723	1
0	20131	2971.160579450681	0
0	20448	3030.782295143604	1
0	20449	3030.920038743697	0
0	20484	3036.165703097151	1
0	20485	3036.473580438955	0
0	20490	3036.538892166335	1
0	20491	3036.585812980973	0
0	20550	3047.34125548229	1
0	20551	3047.415023357677	0
0	20694	3067.70015685786	1
0	20695	3067.838119557587	0
0	20718	3070.3022622452	1
0	20719	3070.367152813291	0
0	20736	3072.31338800574	1
0	20739	3072.671761264455	2
0	20742	3073.087438578805	3
0	20743	3073.19389901058	2
0	20746	3073.693169464402	1
0	20749	3073.845491501435	0
0	20844	3090.57593397168	1
0	20845	3090.65876705067	0
0	20850	3090.855319612452	1
0	20851	3091.350771290874	0
0	20928	3107.286463920065	1
0	20931	3107.513473900526	2
0	20932	3107.6203896763	1
0	20935	3108.25611370561	0
0	20940	3108.462020951744	1
0	20941	3108.987702316541	0
0	20964	3111.497415249068	1
0	20965	3111.703640924102	0
0	20976	3112.987020294219	1
0	20979	3113.209793827304	2
0	20980	3113.32837763522	1
0	20983	3113.557876960527	0
0	21492	3189.91947352615	1
0	21495	3190.131617140141	2
0	21496	3190.290326569807	1
0	21499	3190.405972380534	0
0	21528	3195.43079487189	1
0	21529	3195.434108874942	0
0	21576	3199.68220472612	1
0	21577	3199.964637951968	0
0	21624	3214.304826573567	1
0	21625	3214.640632416782	0
0	21756	3230.00111503753	1
0	21759	3230.059704832731	2
0	21760	3230.51929825964	1
0	21763	3231.171301194564	0
0	22002	3267.538372141145	1
0	22003	3267.719282490532	0
0	22044	3275.934292477663	1
0	22045	3276.236461366474	0
0	22086	3283.531572354997	1
0	22087	3283.688598111282	0
0	22098	3284.092152014986	1
0	22099	3284.180668452045	0
0	22104	3284.184144372518	1
0	22105	3284.495463620405	0
0	22206	3304.777526966112	1
0	22209	3305.18542684274	2
0	22210	3305.275462582899	1
0	22215	3305.712511983583	2
0	22216	3306.10214746935	1
0	22219	3306.140421052591	0
0	22302	3317.50305738453	1
0	22303	3317.608770957919	0
0	22380	3322.835424043032	1
0	22383	3322.895233838215	2
0	22386	3323.506615753987	3
0	22389	3323.6848960629	4
0	22390	3323.807060903894	3
0	22395	3324.045599554335	4
0	22396	3324.079420019416	3
0	22399	3324.091009818791	2
0	22402	3324.501177718607	1
0	22407	3324.634427916458	2
0	22408	3324.670703413766	1
0	22411	3324.67331320096	0
0	22416	3324.940937237031	1
0	22417	3325.01409226777	0
0	22452	3328.61847819356	1
0	22453	3329.096942211888	0
0	22662	3373.167407883601	1
0	22663	3373.219114810724	0
0	22698	3377.94367821953	1
0	22699	3378.201639685073	0
0	22794	3394.928721000081	1
0	22797	3395.185609478092	2
0	22798	3395.912742786561	1
0	22801	3395.914234729128	0
0	22812	3396.595550827877	1
0	22813	3396.637296909064	0
0	22830	3398.455410156112	1
0	22831	3398.502995527891	0
0	22836	3398.524126726134	1
0	22839	3398.877263335026	2
0	22840	3399.179336323081	1
0	22843	3399.203616931561	0
0	22956	3418.11629065866	1
0	22957	3418.150952177612	0
0	22986	3424.448909557627	1
0	22987	3424.500801270269	0
0	22998	3425.098938774246	1
0	22999	3425.168275749744	0
0	23136	3442.859794958982	1
0	23137	3442.872829225844	0
0	23238	3458.224122304636	1
0	23239	3458.486819466821	0
0	23262	3461.963685555709	1
0	23263	3462.106887162208	0
0	23376	3478.440542081604	1
0	23377	3478.589411309274	0
0	23382	3478.618631185314	1
0	23383	3478.779874074618	0
0	23412	3481.907893383639	1
0	23413	3482.200876112582	0
0	23418	3482.334965287862	1
0	23419	3482.380252265308	0
0	23484	3489.121144569008	1
0	23485	3489.12385720349	0
0	23544	3494.449529976098	1
0	23545	3495.005836605257	0
0	23682	3513.393065354859	1
0	23685	3513.517628931198	2
0	23688	3513.609644634298	3
0	23689	3513.645564834856	2
0	23692	3513.8916852129	1
0	23695	3514.114077222427	0
0	23742	3520.056632325841	1
0	23743	3520.76579412308	0
0	23748	3520.834473756552	1
0	23749	3520.869902079516	0
0	23754	3520.987807351875	1
0	23755	3521.219957241013	0
0	23838	3538.186944310729	1
0	23839	3538.238321335267	0
0	23844	3538.282431196594	1
0	23845	3538.823119268792	0
0	23868	3543.471945172185	1
0	23871	3543.665137490139	2
0	23874	3543.684882958256	3
0	23875	3543.707691225019	2
0	23880	3544.250810181067	3
0	23881	3544.689333000315	2
0	23886	3544.70063293497	3
0	23887	3545.360266077179	2
0	23890	3545.467307613331	1
0	23893	3545.507015384447	0
0	23898	3545.517390624347	1
0	23901	3545.55857312051	2
0	23904	3545.606452970321	3
0	23905	3545.696674977338	2
0	23908	3545.732598160489	1
0	23911	3545.747055877253	0
0	23922	3546.383455466993	1
0	23923	3546.418336896348	0
0	23934	3546.919377566943	1
0	23935	3547.092821395422	0
0	23940	3547.406274484687	1
0	23941	3547.436856283487	0
0	23946	3547.683017289014	1
0	23949	3547.890989383582	2
0	23950	3548.001216596319	1
0	23953	3548.260544556504	0
0	23964	3549.108961116895	1
0	23967	3549.539189363027	2
0	23968	3549.656363122672	1
0	23971	3549.766715254571	0
0	24024	3556.837622441294	1
0	24025	3557.133021372918	0
0	24036	3557.435365547146	1
0	24037	3557.447744642689	0
0	24066	3564.085707355563	1
0	24067	3564.376983002099	0
0	24150	3583.15828681376	1
0	24151	3583.189074779764	0
0	24204	3591.304583160046	1
0	24205	3591.345855332875	0
0	24234	3593.335375197354	1
0	24235	3593.605430978872	0
0	24258	3595.209583640955	1
0	24261	3595.372854676949	2
0	24262	3595.636711123179	1
0	24265	3595.642666739654	0
0	24312	3603.254087128298	1
0	24313	3603.563384046997	0
0	24462	3631.307885938588	1
0	24463	3631.3899695469	0
0	24510	3634.72533096254	1
0	24511	3634.930933817048	0
0	24630	3651.569775512519	1
0	24631	3651.674536932495	0
0	24732	3667.947295828476	1
0	24735	3668.093011880384	2
0	24736	3668.445991022939	1
0	24739	3668.802889020751	0
0	24750	3669.62712882558	1
0	24751	3669.647609795832	0
0	24972	3706.291321597669	1
0	24973	3706.619517421793	0
0	24984	3707.266105118715	1
0	24985	3707.353677885986	0
0	25068	3719.35655172042	1
0	25069	3720.116465988676	0
0	25410	3777.168145908221	1
0	25411	3777.634577083766	0
0	25500	3793.24526829719	1
0	25501	3793.59290704275	0
0	25626	3820.213355472535	1
0	25627	3820.293147365672	0
0	25638	3821.047622080448	1
0	25639	3821.353020645244	0
0	25716	3828.305280669774	1
0	25717	3828.376435447684	0
0	25926	3864.390561443658	1
0	25927	3864.620240668092	0
0	26298	3923.817237542676	1
0	26299	3923.862208587872	0
0	26310	3924.330751197233	1
0	26313	3924.549812901976	2
0	26314	3924.679937880363	1
0	26317	3924.85190201407	0
0	26382	3933.204475734865	1
0	26385	3933.208960406335	2
0	26386	3933.439088730688	1
0	26391	3933.471490699609	2
0	26394	3933.585543785438	3
0	26395	3933.632762700219	2
0	26400	3933.883131797204	3
0	26403	3933.928818544088	4
0	26404	3933.967481688552	3
0	26407	3933.987929277211	2
0	26410	3934.317535971446	1
0	26413	3935.008854418117	0
0	26430	3936.797275523726	1
0	26431	3937.039810434142	0
0	26436	3937.683396193012	1
0	26437	3938.005536686177	0
0	26454	3938.591045037431	1
0	26455	3938.732435404171	0
0	26472	3941.136820199261	1
0	26473	3941.197326806697	0
0	26526	3944.164040182567	1
0	26527	3944.283630308512	0
0	26544	3945.856716260263	1
0	26545	3946.256663705662	0
0	26610	3956.606971679528	1
0	26613	3956.630950978656	2
0	26616	3956.735058692669	3
0	26617	3956.979295490474	2
0	26620	3956.983966648204	1
0	26623	3957.104220423211	0
0	26766	3982.910505677536	1
0	26767	3983.240678068017	0
0	26808	3989.313568531227	1
0	26809	3989.379454536812	0
0	27054	4028.595840352655	1
0	27055	4028.895695151718	0
0	27198	4048.46736214645	1
0	27199	4048.573765864828	0
0	27318	4065.740238342256	1
0	27319	4065.831696484341	0
0	27324	4065.878513938058	1
0	27325	4066.124175771991	0
0	27738	4133.71471640589	1
0	27739	4134.203128365767	0
0	27840	4152.547390564122	1
0	27841	4152.587859044592	0
0	27864	4157.156708561107	1
0	27865	4157.388696275161	0
0	27876	4158.025927829059	1
0	27879	4158.244888671001	2
0	27882	4158.251007787379	3
0	27883	4158.703505089757	2
0	27886	4158.849548327519	1
0	27889	4159.206729891386	0
0	27924	4162.496604221854	1
0	27925	4162.810478433925	0
0	27936	4163.919162766436	1
0	27937	4164.047229439468	0
0	27942	4164.312139497652	1
0	27943	4164.609444372376	0
0	27948	4164.646125840406	1
0	27949	4164.694805854029	0
0	27960	4164.957254070702	1
0	27961	4165.104919327533	0
0	27966	4165.113806715662	1
0	27967	4165.152579615243	0
0	28032	4177.892612347462	1
0	28033	4177.923999766182	0
0	28056	4180.531828959999	1
0	28057	4180.616615849934	0
0	28104	4186.885373988238	1
0	28107	4187.043124655896	2
0	28110	4187.062804900669	3
0	28111	4187.359227052884	2
0	28116	4187.385228382337	3
0	28117	4187.592212907155	2
0	28120	4187.598868530753	1
0	28123	4187.701228995747	0
0	28140	4190.011220384421	1
0	28141	4190.114111181578	0
0	28146	4190.237049309944	1
0	28147	4190.249335685815	0
0	28158	4191.305674761591	1
0	28159	4191.5421014442	0
0	28206	4198.072642234505	1
0	28207	4198.121842773541	0
0	28308	4214.131313596565	1
0	28309	4214.159805894819	0
0	28458	4239.303795299446	1
0	28461	4239.666720660888	2
0	28464	4239.993842748476	3
0	28465	4240.126217118639	2
0	28468	4240.188302486671	1
0	28471	4240.453997843432	0
0	28560	4251.84339145806	1
0	28561	4252.027227878306	0
0	28626	4257.824187887722	1
0	28627	4258.102446426188	0
0	28674	4264.238768391636	1
0	28677	4264.277392387363	2
0	28680	4264.304080020326	3
0	28681	4264.418351348914	2
0	28684	4264.461524505156	1
0	28687	4264.490489267351	0
0	28692	4264.525891971692	1
0	28695	4264.542919916149	2
0	28698	4264.748841305625	3
0	28701	4265.029765904835	4
0	28702	4265.348061670953	3
0	28705	4265.357001235519	2
0	28708	4265.847217954483	1
0	28711	4265.876197266269	0
0	28926	4300.245071784469	1
0	28929	4300.259448173045	2
0	28930	4300.437220455214	1
0	28933	4300.618839838969	0
0	29466	4398.380293981536	1
0	29467	4398.654793290261	0
0	29472	4398.720154600588	1
0	29473	4398.791153814831	0
0	29586	4418.926980874147	1
0	29587	4420.031936022309	0
0	29736	4439.496530064627	1
0	29739	4439.51187607682	2
0	29740	4439.591707429272	1
0	29743	4439.991938129808	0
0	29790	4445.894379155204	1
0	29791	4446.007310289942	0
0	29796	4446.137374004386	1
0	29797	4446.368173772954	0
0	29808	4446.88048519165	1
0	29809	4446.9796179874	0
0	29814	4446.990595565017	1
0	29815	4447.62922871095	0
0	29892	4464.372579130405	1
0	29893	4464.559757034628	0
0	29934	4471.560732923154	1
0	29935	4471.605019192957	0
0	30048	4481.688707631979	1
0	30049	4481.862518109703	0
0	30054	4482.028422677212	1
0	30055	4482.188591556647	0
0	30132	4494.57703524979	1
0	30135	4494.770638459311	2
0	30136	4495.262545239275	1
0	30139	4495.374737139466	0
0	30162	4497.595614608084	1
0	30163	4497.991196038367	0
0	30168	4498.042449609583	1
0	30169	4498.061728101342	0
0	30258	4509.120236308832	1
0	30259	4509.155954940844	0
0	30264	4509.240259416228	1
0	30265	4509.560626817393	0
0	30402	4530.165014212436	1
0	30405	4530.531280516063	2
0	30406	4530.723363044715	1
0	30409	4531.085329946812	0
0	30432	4533.628828042505	1
0	30433	4533.798095513036	0
0	30438	4534.4480333006	1
0	30439	4534.5748546317	0
0	30480	4539.876378094475	1
0	30481	4540.413993492017	0
0	30558	4570.475691828266	1
0	30559	4570.84425874835	0
0	30630	4581.732966709605	1
0	30631	4581.918589749022	0
0	30750	4597.59890051773	1
0	30751	4597.709610383937	0
0	30786	4604.460662317715	1
0	30787	4604.742653084272	0
0	30792	4605.061643733002	1
0	30793	4605.392017102103	0
0	30858	4615.468289364246	1
0	30859	4616.625643409534	0
0	30882	4620.05468878851	1
0	30885	4620.101924027815	2
0	30886	4620.120449841402	1
0	30889	4620.128702653299	0
0	30924	4626.052920529913	1
0	30925	4626.138623079199	0
0	30942	4630.565108844147	1
0	30945	4630.891998408337	2
0	30946	4631.163262651914	1
0	30949	4631.308238343425	0
0	31008	4639.808007789916	1
0	31009	4639.824130939002	0
0	31086	4649.216021477205	1
0	31087	4649.216265312413	0
0	31122	4654.127749179451	1
0	31123	4654.305381123175	0
0	31158	4660.230535869771	1
0	31159	4660.432506283803	0
0	31170	4661.211542781764	1
0	31171	4661.272548482608	0
0	31308	4680.409241691561	1
0	31309	4680.517537431102	0
0	31344	4686.046447787904	1
0	31345	4686.099376322433	0
0	31812	4777.247587890309	1
0	31813	4777.46572337066	0
0	31854	4784.512323653327	1
0	31855	4784.683972043582	0
0	31998	4812.62675665424	1
0	31999	4813.666665585222	0
0	32112	4828.497359900238	1
0	32113	4828.505531991887	0
0	32130	4830.141684479149	1
0	32131	4830.553394072566	0
0	32136	4830.569337670118	1
0	32137	4830.703714222575	0
0	32202	4839.59186068786	1
0	32203	4839.600736709816	0
0	32274	4851.274952692016	1
0	32277	4852.006856405891	2
0	32278	4852.076388131322	1
0	32281	4852.259940658004	0
0	32328	4856.591069258475	1
0	32329	4856.725764296997	0
0	32364	4864.96927784384	1
0	32365	4865.05239500806	0
0	32430	4874.741043398141	1
0	32431	4874.971355404602	0
0	32538	4890.773647875373	1
0	32539	4891.20933611635	0
0	32586	4898.752515840082	1
0	32587	4899.152941056068	0
0	32628	4906.028375657444	1
0	32629	4906.956606775159	0
0	33078	4977.857917294837	1
0	33079	4978.556090838058	0
0	33384	5035.982866902194	1
0	33385	5036.209314276487	0
0	33450	5049.950509352399	1
0	33453	5050.250615960373	2
0	33454	5050.737811931611	1
0	33457	5050.945964242624	0
0	33462	5051.689336473822	1
0	33463	5051.711703689366	0
0	33606	5072.603969077862	1
0	33607	5072.630900183353	0
0	33726	5098.33034321249	1
0	33729	5098.366481306097	2
0	33732	5098.904859291293	3
0	33733	5099.042770782141	2
0	33736	5099.2428971701	1
0	33739	5099.289834900569	0
0	33840	5112.556218257491	1
0	33841	5112.587068527866	0
0	33846	5112.789019709314	1
0	33847	5113.247999025186	0
0	33870	5118.445470585993	1
0	33871	5118.988353922033	0
0	33876	5119.067540117955	1
0	33877	5119.214893144435	0
0	33900	5125.433750521413	1
0	33903	5125.48966835553	2
0	33904	5126.066274063393	1
0	33907	5126.28759543233	0
0	33912	5126.47264918492	1
0	33913	5126.655613995571	0
0	33918	5127.013148846826	1
0	33919	5127.278754269563	0
0	33924	5127.297736703153	1
0	33925	5127.476575072209	0
0	33990	5143.795772648512	1
0	33991	5143.876800761878	0
0	34026	5152.150279700917	1
0	34027	5152.290726232312	0
0	34224	5178.126471857861	1
0	34225	5178.130893052632	0
0	34242	5179.745592625638	1
0	34243	5179.962263311577	0
0	34290	5186.303903664794	1
0	34293	5186.329051238541	2
0	34294	5186.736936777062	1
0	34297	5186.854520710533	0
0	34302	5187.293856902615	1
0	34303	5187.377741640316	0
0	34308	5187.510418926375	1
0	34309	5187.713477919755	0
0	34362	5197.008208320671	1
0	34365	5197.103008188822	2
0	34366	5197.401018132098	1
0	34369	5197.439546357719	0
0	34422	5205.069996528916	1
0	34423	5205.127860985356	0
0	34464	5218.170382816593	1
0	34465	5218.18730356987	0
0	34776	5279.962597206576	1
0	34777	5280.039460283724	0
0	34920	5304.040299031287	1
0	34921	5304.097189363573	0
0	35022	5316.088487139545	1
0	35025	5316.089056917351	2
0	35026	5316.637989977616	1
0	35029	5316.657362728043	0
0	35040	5317.787774764417	1
0	35041	5318.126899805929	0
0	35088	5322.929416125736	1
0	35089	5322.933270711703	0
0	35106	5324.386962658845	1
0	35107	5324.43524468881	0
0	35124	5326.230984844564	1
0	35125	5326.427794193175	0
0	35130	5326.496857556942	1
0	35131	5326.555373939339	0
0	35160	5331.299507052417	1
0	35161	5331.650191508268	0
0	35190	5336.786234095876	1
0	35191	5336.799584819712	0
0	35244	5344.530045072283	1
0	35245	5344.665289895111	0
0	35304	5358.284197817437	1
0	35305	5358.374280773814	0
0	35334	5360.884118805598	1
0	35335	5360.912282093618	0
0	35400	5366.99401873833	1
0	35401	5367.054072414239	0
0	35406	5367.146508372838	1
0	35407	5367.931441169016	0
0	35658	5411.750629326293	1
0	35661	5412.08657822623	2
0	35662	5412.183400459103	1
0	35667	5412.289783634458	2
0	35668	5412.372470993296	1
0	35671	5412.433153592797	0
0	35730	5420.129310789899	1
0	35731	5420.640902123268	0
0	36024	5461.128805319141	1
0	36025	5461.287421393471	0
0	36030	5461.300160653844	1
0	36033	5461.373329033101	2
0	36034	5461.591524632173	1
0	36037	5461.609125897107	0
0	36294	5511.84048472911	1
0	36295	5511.932793695096	0
0	36384	5524.895711946221	1
0	36385	5525.412226348492	0
0	36672	5574.072214003977	1
0	36675	5574.33994240837	2
0	36676	5574.551974064181	1
0	36681	5575.201197572912	2
0	36682	5575.272684052486	1
0	36685	5575.294552338975	0
0	36696	5576.08671563233	1
0	36697	5576.435176889391	0
0	36714	5577.646188680893	1
0	36715	5577.748081556765	0
0	36780	5588.658181036642	1
0	36781	5588.665515269386	0
0	36792	5588.881558899842	1
0	36795	5588.970841799315	2
0	36796	5589.422922907857	1
0	36799	5589.688531797875	0
0	36906	5609.158800993088	1
0	36907	5609.214450467618	0
0	36912	5609.618797966899	1
0	36913	5610.092257246748	0
0	36936	5612.302398099627	1
0	36939	5612.578486514281	2
0	36940	5612.63997666938	1
0	36943	5612.668822973341	0
0	36948	5612.822694461844	1
0	36949	5612.979359864648	0
0	36972	5615.15364903289	1
0	36973	5615.340591916005	0
0	37056	5627.777113912706	1
0	37059	5627.990114784905	2
0	37060	5628.068337255771	1
0	37063	5628.276293812559	0
0	37116	5639.152443606014	1
0	37117	5639.706363599584	0
0	37362	5677.534420132697	1
0	37363	5677.710704620035	0
0	37386	5682.714858577164	1
0	37387	5682.733808025175	0
0	37512	5707.106626318986	1
0	37513	5707.252342987931	0
0	37572	5714.643127466743	1
0	37573	5714.821075583727	0
0	37722	5746.607048793759	1
0	37723	5746.607607318087	0
0	37728	5746.730042048904	1
0	37729	5747.067983747885	0
0	37734	5747.086240176646	1
0	37735	5747.187393349334	0
0	37776	5751.073675500382	1
0	37779	5751.5693725904	2
0	37780	5751.692872657685	1
0	37785	5751.706972991738	2
0	37786	5752.189304950327	1
0	37789	5752.42697583229	0
0	37866	5767.817394953325	1
0	37867	5767.944422530177	0
0	37902	5771.535279020576	1
0	37903	5771.598695624517	0
0	37908	5771.7015688269	1
0	37909	5772.021177709644	0
0	38046	5790.99179104542	1
0	38049	5791.45915126488	2
0	38052	5791.776121974557	3
0	38053	5791.790617886838	2
0	38058	5792.049227924191	3
0	38059	5792.217873762222	2
0	38064	5792.259613303043	3
0	38065	5792.424582927521	2
0	38068	5792.529735290035	1
0	38071	5792.826308647902	0
0	38148	5804.747499785587	1
0	38149	5804.833119826362	0
0	38358	5835.394607888965	1
0	38359	5835.600430114586	0
0	38394	5841.696887342464	1
0	38395	5841.762984166168	0
0	38400	5841.936028361955	1
0	38401	5841.985864612865	0
0	38424	5844.100140141367	1
0	38425	5844.101982729249	0
0	38430	5844.491743842096	1
0	38431	5844.53839671214	0
0	38460	5848.258130963577	1
0	38461	5848.31591578701	0
0	38958	5940.171394084936	1
0	38959	5940.311849234606	0
0	39072	5958.757689586195	1
0	39073	5959.015334277379	0
0	39114	5962.259167168928	1
0	39115	5962.297862306147	0
0	39120	5962.62945268197	1
0	39121	5962.997512138718	0
0	39126	5963.30111815169	1
0	39127	5963.424009682924	0
0	39174	5970.619115079773	1
0	39175	5970.656367183139	0
0	39348	5999.608450902243	1
0	39349	5999.751121893807	0
0	39372	6003.546865225103	1
0	39373	6003.678464893168	0
0	39534	6028.236465811578	1
0	39535	6028.324338733302	0
0	39594	6035.669564679711	1
0	39595	6036.499274361558	0
0	39672	6047.111114188208	1
0	39675	6047.116352318414	2
0	39678	6047.314148783588	3
0	39679	6047.409622061102	2
0	39684	6047.51681224461	3
0	39687	6047.622243393335	4
0	39688	6047.636102807176	3
0	39691	6047.682053967141	2
0	39694	6047.716964108645	1
0	39697	6047.774711232608	0
0	39708	6048.023385269669	1
0	39709	6048.151813530167	0
0	39846	6066.338068111106	1
0	39847	6066.536333422441	0
0	39906	6073.340055285983	1
0	39909	6073.521851621852	2
0	39910	6073.579991522973	1
0	39913	6073.660277235088	0
0	39996	6084.942786403474	1
0	39997	6085.08045032179	0
0	40254	6130.06266590785	1
0	40255	6130.092017046247	0
0	40368	6149.240498195587	1
0	40369	6149.299242042743	0
0	40446	6161.384376780306	1
0	40449	6161.416602564878	2
0	40450	6161.529595532862	1
0	40453	6161.896325586678	0
0	40554	6176.718797466747	1
0	40555	6176.837475524016	0
0	40602	6186.536187127691	1
0	40603	6186.949375395925	0
0	40608	6187.041703338246	1
0	40609	6187.362118768518	0
0	40662	6202.170186458022	1
0	40663	6202.500952371914	0
0	40764	6218.685571069531	1
0	40765	6218.720688008699	0
0	40782	6222.349699677681	1
0	40783	6222.38137937342	0
0	40974	6257.932423718579	1
0	40977	6258.691185915482	2
0	40978	6258.71733519869	1
0	40981	6258.844401672137	0
0	41052	6278.569847110273	1
0	41053	6278.799057952905	0
0	41058	6279.407315048076	1
0	41061	6279.414814876082	2
0	41062	6279.633547184693	1
0	41065	6279.702555897322	0
0	41238	6301.492398200412	1
0	41241	6301.493249499994	2
0	41242	6301.543016266089	1
0	41247	6302.073825061069	2
0	41248	6302.224803060697	1
0	41253	6302.37303786714	2
0	41254	6302.633520559899	1
0	41259	6303.366161358834	2
0	41262	6303.379205085836	3
0	41265	6303.621864794558	4
0	41266	6303.81369474146	3
0	41269	6303.891509090131	2
0	41274	6304.375124543975	3
0	41275	6304.516245390531	2
0	41278	6304.735115385061	1
0	41281	6304.771908442207	0
0	41286	6304.98479124191	1
0	41287	6305.445243643254	0
0	41400	6341.89588696988	1
0	41401	6341.970641030689	0
0	41418	6344.50569664598	1
0	41419	6344.571072577872	0
0	41694	6384.508128761236	1
0	41695	6384.592920326525	0
0	41718	6386.242278102498	1
0	41719	6386.343147290194	0
0	41724	6386.488317185798	1
0	41725	6386.516968331376	0
0	41730	6386.526859016417	1
0	41731	6387.159124205046	0
0	41742	6388.243544353838	1
0	41743	6388.345101689291	0
0	41844	6398.620294129347	1
0	41845	6398.644388626856	0
0	41892	6405.989490534476	1
0	41893	6406.206542888811	0
0	41898	6406.295315760058	1
0	41899	6406.735942289934	0
0	42048	6443.817361058857	1
0	42049	6444.132348138565	0
0	42078	6447.7366663354	1
0	42079	6448.211778284372	0
0	42096	6449.718013967123	1
0	42097	6449.945661051372	0
0	42120	6452.018484198844	1
0	42121	6452.632001810503	0
0	42126	6453.579648014284	1
0	42127	6454.36874699153	0
0	42156	6460.276442474442	1
0	42157	6460.602635084471	0
0	42264	6473.251196944898	1
0	42265	6473.290088016205	0
0	42294	6476.211743961906	1
0	42297	6476.313005448991	2
0	42298	6476.598375073247	1
0	42301	6477.021708151924	0
0	42588	6521.237936679841	1
0	42589	6521.346188004733	0
0	42618	6523.311821654897	1
0	42619	6523.480903583585	0
0	42624	6523.489046659505	1
0	42627	6523.740818005913	2
0	42628	6523.765887536186	1
0	42633	6523.909897501558	2
0	42636	6524.125907828349	3
0	42639	6524.193346173111	4
0	42640	6524.352614345763	3
0	42643	6524.902729790416	2
0	42646	6524.934040181399	1
0	42649	6525.193997309285	0
0	42660	6525.869664194603	1
0	42661	6525.918023092014	0
0	42696	6532.338005579122	1
0	42697	6532.352632908199	0
0	42720	6533.833863148296	1
0	42721	6533.930403354263	0
0	42726	6534.36687688337	1
0	42727	6534.509685860759	0
0	42732	6534.807897077253	1
0	42735	6535.090114322257	2
0	42736	6535.25588561058	1
0	42739	6535.524711760581	0
0	42834	6554.280451614504	1
0	42837	6554.293802583597	2
0	42838	6554.391876920464	1
0	42841	6554.470966525449	0
0	42918	6569.929371876301	1
0	42919	6569.962554905353	0
0	42954	6578.293475034586	1
0	42955	6578.357146916671	0
0	42984	6583.340403125173	1
0	42985	6583.787127260819	0
0	43008	6585.626036474033	1
0	43009	6585.742534564591	0
0	43140	6612.121402071546	1
0	43143	6612.75986219688	2
0	43144	6613.499895651965	1
0	43147	6613.724012618354	0
0	43290	6645.908886772666	1
0	43291	6646.068088751765	0
0	43440	6668.681030650323	1
0	43441	6668.741073819551	0
0	43506	6679.012414876644	1
0	43507	6679.241323024605	0
0	43596	6696.819079972366	1
0	43597	6696.870735709415	0
0	43608	6697.43349986393	1
0	43609	6697.577990582294	0
0	43734	6720.712050221689	1
0	43737	6720.899747723795	2
0	43738	6721.032511400499	1
0	43741	6721.178327486496	0
0	44094	6790.569195872563	1
0	44095	6790.605236151795	0
0	44172	6805.444031301174	1
0	44175	6806.341077738687	2
0	44176	6806.478549792776	1
0	44181	6807.06114403697	2
0	44182	6807.119942575326	1
0	44185	6807.236367650931	0
0	44508	6869.577432880291	1
0	44509	6869.624330489081	0
0	44532	6875.287959504507	1
0	44533	6875.300971796692	0
0	44538	6875.400049040524	1
0	44539	6875.52208857162	0
0	44562	6877.389137063528	1
0	44563	6877.420244330258	0
0	44610	6889.255202036904	1
0	44611	6889.871639597917	0
0	44856	6929.937116179267	1
0	44857	6930.197007929734	0
0	44940	6943.054961445275	1
0	44941	6943.81126342168	0
0	44946	6944.327499004659	1
0	44947	6944.359028091054	0
0	44952	6944.712648766792	1
0	44953	6944.84000267748	0
0	44982	6947.780120335808	1
0	44983	6947.852687115593	0
0	44988	6947.906518217896	1
0	44989	6948.060899994854	0
0	45012	6951.454995355901	1
0	45013	6951.790299602035	0
0	45090	6974.881814055148	1
0	45091	6975.204818019015	0
0	45150	6983.96478476367	1
0	45151	6984.272406053025	0
0	45174	6988.430557301448	1
0	45175	6988.689720738646	0
0	45282	7008.812209719482	1
0	45285	7009.343489190759	2
0	45288	7009.426044615914	3
0	45289	7009.553894529155	2
0	45292	7009.677819752557	1
0	45295	7009.872284604408	0
0	45372	7021.230009079488	1
0	45373	7021.327921096275	0
0	45522	7044.103564154003	1
0	45523	7044.114734042266	0
0	45528	7044.13213196313	1
0	45529	7044.290498643683	0
0	45588	7050.657489157948	1
0	45591	7051.076872670382	2
0	45592	7052.342320338669	1
0	45597	7052.369848399642	2
0	45598	7052.378323051156	1
0	45601	7052.50276024242	0
0	45654	7059.697171185433	1
0	45657	7059.86054350377	2
0	45658	7060.078873835083	1
0	45661	7060.214854385391	0
0	45690	7062.585743691677	1
0	45691	7062.7779670483	0
0	45708	7063.935361401732	1
0	45709	7064.177289286558	0
0	45864	7099.976303670967	1
0	45865	7100.191750849549	0
0	45894	7104.008449870347	1
0	45895	7104.233978555216	0
0	45966	7113.625731323539	1
0	45967	7113.671496156008	0
0	46002	7117.900539630939	1
0	46003	7118.161030598262	0
0	46026	7118.930673914577	1
0	46027	7119.047991575458	0
0	46068	7126.007158976439	1
0	46069	7126.179648408008	0
0	46224	7152.886793872948	1
0	46225	7152.923629572927	0
0	46254	7154.841746517247	1
0	46257	7154.988524683917	2
0	46258	7155.380862436985	1
0	46261	7155.387272654888	0
0	46284	7160.825141140293	1
0	46285	7160.854458732451	0
0	46290	7160.929516762873	1
0	46291	7160.982126157742	0
0	46338	7168.360773487914	1
0	46341	7168.474665007849	2
0	46342	7168.535454582845	1
0	46345	7169.442614731503	0
0	46404	7180.593654620026	1
0	46405	7180.595862432167	0
0	46464	7186.007126215703	1
0	46465	7186.066359752601	0
0	46488	7191.02643229044	1
0	46491	7191.281998353713	2
0	46492	7191.690392360035	1
0	46495	7192.444861881053	0
0	46668	7223.475835849446	1
0	46669	7224.103682500431	0
0	46860	7250.85946741569	1
0	46861	7250.928227863082	0
0	47166	7308.084811880151	1
0	47167	7308.1265608866	0
0	47268	7325.158801195533	1
0	47271	7325.196876927336	2
0	47272	7325.681678606633	1
0	47277	7325.741530157969	2
0	47278	7325.903280240844	1
0	47281	7325.915777414545	0
0	47286	7325.983625874931	1
0	47289	7325.995662121447	2
0	47290	7326.210270723497	1
0	47293	7326.256820484084	0
0	47322	7329.24076332847	1
0	47323	7329.501645807413	0
0	47358	7334.380028059244	1
0	47359	7334.393642086351	0
0	47388	7341.346866455654	1
0	47389	7341.874354021603	0
0	47412	7344.261836891377	1
0	47413	7344.277739598744	0
0	47448	7347.855254917591	1
0	47449	7348.488951592028	0
0	47538	7366.91714578851	1
0	47539	7367.189017124115	0
0	47544	7367.547466197806	1
0	47545	7367.634363970095	0
0	47574	7372.170087557402	1
0	47575	7372.204108948567	0
0	47598	7375.536185631321	1
0	47599	7375.644317221163	0
0	47634	7380.707697777183	1
0	47635	7380.771232490499	0
0	47694	7391.807050076582	1
0	47695	7391.843070130253	0
0	47778	7403.361873553335	1
0	47779	7404.133439567594	0
0	47850	7416.435234865436	1
0	47851	7416.501682409146	0
0	48156	7465.357780242333	1
0	48157	7465.456869217386	0
0	48270	7485.872245827164	1
0	48271	7486.281110112249	0
0	48306	7489.33960706805	1
0	48307	7489.7869032168	0
0	48348	7495.984637666974	1
0	48351	7496.201162246901	2
0	48352	7496.237278366317	1
0	48355	7496.345743421584	0
0	48468	7510.484323466622	1
0	48469	7510.723630297728	0
0	48474	7511.417803639653	1
0	48477	7511.559372259183	2
0	48480	7511.653780966531	3
0	48481	7511.74716736516	2
0	48484	7512.047902359798	1
0	48487	7512.061993817109	0
0	48540	7520.453685765803	1
0	48543	7520.87531998981	2
0	48546	7520.916512184486	3
0	48549	7521.219753137339	4
0	48550	7521.551507422309	3
0	48553	7521.798712204644	2
0	48558	7522.274814756442	3
0	48559	7522.520249073778	2
0	48564	7522.632766760416	3
0	48567	7522.806810437815	4
0	48568	7522.902638835239	3
0	48571	7522.903043384461	2
0	48576	7523.534720143209	3
0	48577	7523.546854396224	2
0	48582	7524.095574653105	3
0	48583	7524.323975471957	2
0	48586	7524.418881913121	1
0	48591	7525.111140872095	2
0	48594	7525.215474370924	3
0	48595	7525.603957273201	2
0	48598	7525.725896468243	1
0	48601	7525.793805852473	0
0	48900	7571.232804916548	1
0	48901	7571.369769429842	0
0	48918	7572.516610916764	1
0	48919	7572.733805499723	0
0	49056	7599.91191135236	1
0	49057	7600.115941627518	0
0	49062	7600.191686870879	1
0	49063	7600.251968629798	0
0	49296	7638.615546575695	1
0	49299	7638.883719858379	2
0	49300	7638.889652192107	1
0	49303	7639.020206344359	0
0	49380	7651.858945169753	1
0	49383	7652.744382420645	2
0	49384	7652.77291504811	1
0	49387	7652.795445760265	0
0	49392	7652.820789564547	1
0	49393	7653.136922273855	0
0	49578	7679.984039627859	1
0	49579	7680.76149822493	0
0	49644	7689.91106302896	1
0	49647	7690.341399578819	2
0	49648	7690.901178150667	1
0	49651	7691.000672247593	0
0	49656	7691.026131504798	1
0	49657	7691.191913521149	0
0	49662	7691.326762876804	1
0	49663	7692.335761585393	0
0	49668	7692.614127316765	1
0	49669	7692.773180240936	0
0	49674	7692.781528544263	1
0	49677	7692.967039762214	2
0	49678	7693.774395237447	1
0	49681	7693.950232520343	0
0	49770	7708.794840173154	1
0	49771	7708.844718014513	0
0	50004	7741.786219958183	1
0	50007	7741.7884005664	2
0	50008	7742.288853482244	1
0	50013	7742.350562910748	2
0	50014	7742.437555048538	1
0	50017	7743.025053773736	0
0	50112	7753.872881128372	1
0	50115	7754.244160817337	2
0	50116	7754.382262408961	1
0	50119	7754.454047164562	0
0	50148	7757.554738434252	1
0	50149	7757.66248132571	0
0	50268	7775.117263339549	1
0	50269	7775.210775450347	0
0	50460	7808.661854534156	1
0	50461	7808.795200640466	0
0	50736	7857.150114272271	1
0	50737	7857.244284426926	0
0	50934	7895.754069440086	1
0	50935	7895.914827705137	0
0	51066	7917.372188115155	1
0	51067	7917.57836639615	0
0	51186	7929.330887181256	1
0	51189	7929.332678574257	2
0	51190	7929.51460637669	1
0	51193	7929.737777516548	0
0	51372	7956.242183379229	1
0	51373	7956.254151780801	0
0	51552	7990.021852535495	1
0	51553	7990.080830178444	0
0	51618	7999.704176516869	1
0	51619	7999.951809014035	0
0	51708	8015.902228328736	1
0	51709	8016.031189619273	0
0	51744	8022.899779119861	1
0	51745	8022.976114967529	0
0	51846	8040.725069623233	1
0	51847	8040.806642390093	0
0	51870	8043.800759809514	1
0	51871	8043.826508600128	0
0	51906	8048.157749130056	1
0	51907	8048.192065538805	0
0	51978	8060.320640212279	1
0	51979	8060.392514601101	0
0	52116	8086.873573109338	1
0	52119	8086.883561213153	2
0	52120	8086.983930955975	1
0	52123	8087.167520075288	0
0	52128	8087.548288269338	1
0	52129	8087.731754538784	0
0	52242	8107.550740731678	1
0	52245	8107.666764167044	2
0	52246	8108.007795467189	1
0	52249	8108.411360268657	0
0	52608	8171.533664980872	1
0	52609	8171.574680852652	0
0	52614	8171.720858358856	1
0	52615	8172.051181246606	0
0	52620	8172.052659381667	1
0	52623	8172.218871771297	2
0	52624	8172.300539320278	1
0	52627	8172.381199056954	0
0	52632	8172.687437151903	1
0	52633	8172.758982453309	0
0	52698	8182.012656858969	1
0	52699	8182.231074990943	0
0	52740	8184.658246971281	1
0	52741	8184.91424466601	0
0	52806	8194.234972048485	1
0	52807	8194.243259147857	0
0	52812	8194.594459876025	1
0	52813	8195.1966604877	0
0	52974	8222.90866258374	1
0	52975	8223.078369186998	0
0	53016	8227.801486764115	1
0	53017	8227.858977953515	0
0	53022	8227.96471922715	1
0	53025	8228.836611717785	2
0	53026	8228.932391899782	1
0	53029	8229.353234610354	0
0	53196	8261.73577746995	1
0	53197	8261.924367330757	0
0	53310	8278.028617329194	1
0	53313	8278.1252570865	2
0	53314	8278.189111288162	1
0	53317	8278.235367079152	0
0	53424	8295.238548090582	1
0	53425	8295.324063956961	0
0	53430	8295.545663071785	1
0	53431	8295.567836480224	0
0	53478	8300.704184141673	1
0	53479	8300.718992768065	0
0	53544	8310.942882878652	1
0	53545	8311.186317361917	0
0	53676	8337.726838204358	1
0	53677	8337.803634025126	0
0	53682	8337.980282589262	1
0	53683	8338.022254781411	0
0	53724	8345.979812116421	1
0	53725	8346.2760115113	0
0	53730	8346.290660559262	1
0	53731	8346.347773290651	0
0	53874	8377.086392960029	1
0	53875	8377.118678974884	0
0	53910	8381.839859517185	1
0	53913	8381.958760227302	2
0	53914	8382.245177362876	1
0	53917	8382.377730500494	0
0	53922	8382.531586270753	1
0	53923	8382.563534590064	0
0	53976	8391.462445559937	1
0	53979	8391.534104189083	2
0	53980	8391.762281758273	1
0	53983	8391.88475700328	0
0	53988	8392.156659026836	1
0	53989	8392.471822737253	0
0	54102	8416.605883161396	1
0	54105	8416.876153730625	2
0	54106	8416.878618216928	1
0	54109	8416.910169935636	0
0	54114	8416.922915950569	1
0	54115	8417.273941740358	0
0	54372	8463.120737555701	1
0	54373	8463.125959940063	0
0	54528	8487.256262124965	1
0	54529	8487.277342504372	0
0	54588	8495.053637127469	1
0	54589	8495.171296040765	0
0	54606	8495.599435347506	1
0	54609	8495.654170918036	2
0	54610	8495.86455066856	1
0	54613	8496.339638146864	0
0	54666	8503.233011069406	1
0	54667	8503.287866513169	0
0	54714	8507.348669389955	1
0	54717	8507.506438198697	2
0	54718	8507.908213598148	1
0	54723	8508.217459573837	2
0	54724	8508.221232670141	1
0	54727	8508.33713433875	0
0	54798	8520.154201859171	1
0	54799	8520.229721843063	0
0	54882	8536.549811976578	1
0	54885	8536.694001803036	2
0	54886	8537.137602741577	1
0	54889	8537.23985523208	0
0	54930	8541.20311406153	1
0	54933	8541.750873867005	2
0	54936	8541.804762815835	3
0	54939	8541.885551441132	4
0	54940	8542.2160154832	3
0	54945	8542.223698268462	4
0	54946	8542.253264925264	3
0	54949	8542.363168459308	2
0	54954	8542.491914509312	3
0	54955	8542.73151496201	2
0	54958	8543.059887552255	1
0	54961	8543.064618546555	0
0	54972	8543.550010618512	1
0	54973	8543.672063823949	0
0	54984	8544.036200426928	1
0	54985	8544.045584883589	0
0	55206	8592.50809044523	1
0	55207	8592.572641304447	0
0	55248	8597.754346142826	1
0	55249	8597.83233594629	0
0	55272	8600.710308526492	1
0	55273	8601.006087193543	0
0	55320	8607.402452126797	1
0	55321	8607.767549216289	0
0	55356	8615.078170266732	1
0	55357	8615.447342256504	0
0	55440	8630.730489485967	1
0	55443	8630.837180777166	2
0	55444	8630.910820414161	1
0	55447	8631.29318205434	0
0	55464	8631.841757165279	1
0	55465	8632.041935374968	0
0	55476	8633.21110448537	1
0	55477	8633.264974148742	0
0	55500	8635.166949917169	1
0	55501	8635.485980305329	0
0	55560	8646.428385201747	1
0	55561	8646.45521159848	0
0	55566	8646.532190554665	1
0	55567	8646.664809535462	0
0	55782	8694.921398357349	1
0	55783	8694.925762144922	0
0	55788	8694.96660025303	1
0	55789	8695.018464060083	0
0	55986	8731.051387534086	1
0	55987	8731.102722036742	0
0	56100	8749.103065520823	1
0	56101	8749.19803220116	0
0	56286	8781.823542447487	1
0	56287	8782.110685458765	0
0	56376	8791.965098241604	1
0	56377	8792.027530899486	0
0	56454	8804.548294376025	1
0	56455	8804.598735222288	0
0	56460	8804.785181120696	1
0	56461	8804.821092270885	0
0	56484	8807.332580263432	1
0	56485	8807.437936472863	0
0	56496	8807.888226124709	1
0	56497	8807.896060994256	0
0	56586	8824.6579160485	1
0	56587	8824.666256779347	0
0	56640	8831.1529435597	1
0	56643	8831.305705708188	2
0	56644	8831.514136882425	1
0	56647	8831.622577593025	0
0	56652	8831.836822691112	1
0	56653	8831.875361143875	0
0	56706	8836.557313879853	1
0	56707	8836.715505306005	0
0	56760	8843.132782180861	1
0	56761	8843.771128877848	0
0	56784	8848.291399805793	1
0	56787	8848.343986422248	2
0	56788	8848.76929208308	1
0	56791	8849.119607980233	0
0	56940	8871.565653526284	1
0	56941	8871.915697013381	0
0	57000	8877.039318583061	1
0	57001	8877.225714576562	0
0	57018	8881.946814426885	1
0	57019	8882.000483904942	0
0	57072	8887.870028512621	1
0	57073	8888.086383496172	0
0	57126	8894.906984306963	1
0	57127	8895.012093535891	0
0	57144	8896.451200153896	1
0	57145	8896.542345945255	0
0	57552	8967.974793520433	1
0	57553	8968.063046675894	0
0	57708	8985.376982214246	1
0	57709	8985.489871791771	0
0	57894	9018.223084286773	1
0	57895	9018.759396304872	0
0	58164	9062.124038184635	1
0	58165	9062.182946627578	0
0	58308	9093.074848620027	1
0	58309	9093.175027939013	0
0	58344	9097.841880859552	1
0	58345	9098.136475593825	0
0	58548	9141.432391546202	1
0	58549	9141.73923212912	0
0	58662	9166.974712926813	1
0	58663	9166.991188946173	0
0	58668	9167.143710128805	1
0	58669	9167.237369231305	0
0	58890	9214.716748040182	1
0	58891	9214.970291245059	0
0	58908	9217.900619591459	1
0	58909	9217.955398333856	0
0	59130	9255.062847441661	1
0	59131	9255.064057928801	0
0	59136	9255.06906443467	1
0	59137	9255.653421613371	0
0	59232	9272.672876979923	1
0	59233	9272.818286084572	0
0	59484	9320.388045111925	1
0	59487	9320.528619856868	2
0	59488	9320.594507148186	1
0	59493	9320.617377391637	2
0	59494	9320.886885071299	1
0	59499	9321.003010272333	2
0	59500	9321.265826926066	1
0	59505	9321.288097319826	2
0	59506	9321.509128951072	1
0	59509	9321.66083999852	0
0	59514	9322.327815407751	1
0	59515	9322.547072779283	0
0	59628	9343.834780163105	1
0	59629	9343.838422591624	0
0	59640	9344.03662310723	1
0	59641	9344.344580798749	0
0	59736	9358.229597197583	1
0	59737	9358.492443955136	0
0	59742	9358.556034809246	1
0	59743	9358.592191156875	0
0	59952	9403.782980083625	1
0	59955	9404.086948412053	2
0	59956	9404.237095075035	1
0	59961	9404.516878828823	2
0	59962	9404.902056305282	1
0	59965	9405.09588470771	0
0	60018	9411.508730633032	1
0	60021	9411.520588396505	2
0	60022	9412.33448642789	1
0	60027	9412.367104485044	2
0	60030	9412.603111005707	3
0	60031	9412.894204953305	2
0	60034	9413.045700038025	1
0	60039	9413.272925829668	2
0	60040	9413.278327308139	1
0	60043	9413.387512345215	0
0	60048	9414.140539151591	1
0	60049	9414.271665643452	0
0	60174	9436.018678125922	1
0	60175	9436.082240530752	0
0	60276	9458.590080644798	1
0	60277	9458.849465841541	0
0	60390	9479.771860028419	1
0	60391	9480.004586127517	0
0	60576	9509.137658486616	1
0	60577	9509.354719868556	0
0	60582	9509.484532735137	1
0	60583	9509.532574264977	0
0	60678	9519.353662641323	1
0	60681	9519.424066534019	2
0	60682	9519.628615624248	1
0	60685	9519.709530220821	0
0	60876	9555.476215232699	1
0	60877	9555.544553789535	0
0	60888	9556.055459021718	1
0	60889	9556.494095714125	0
0	60894	9556.544873132933	1
0	60895	9556.905065089921	0
0	60948	9564.396127382843	1
0	60949	9565.237532726268	0
0	61014	9574.618464945338	1
0	61017	9575.550420865389	2
0	61018	9575.596589215422	1
0	61021	9575.602072023	0
0	61170	9597.49766692133	1
0	61171	9597.525005625299	0
0	61224	9609.10302905728	1
0	61225	9609.179944467856	0
0	61356	9623.741623450731	1
0	61357	9623.82377441855	0
0	61446	9644.776691514301	1
0	61447	9644.835477649262	0
0	61494	9654.055287690673	1
0	61495	9654.20994272137	0
0	61530	9659.655660211123	1
0	61533	9659.840350562491	2
0	61534	9660.325224716197	1
0	61537	9660.327982718587	0
0	61548	9661.457016189754	1
0	61549	9661.614971077433	0
0	61656	9678.460752174352	1
0	61657	9679.289897049466	0
0	61692	9684.233292701905	1
0	61695	9684.674879912781	2
0	61696	9684.773492855106	1
0	61699	9684.984859270244	0
0	61728	9689.100554160293	1
0	61731	9689.257130417889	2
0	61732	9689.391454909462	1
0	61735	9689.416065780097	0
0	61842	9707.557172456763	1
0	61845	9707.663903536545	2
0	61846	9707.93076933386	1
0	61851	9707.969609478661	2
0	61852	9708.304176091759	1
0	61855	9708.537222607192	0
0	62148	9753.912839736846	1
0	62149	9753.974136164615	0
0	62178	9756.991488912667	1
0	62179	9757.173449358835	0
0	62184	9757.286184707079	1
0	62185	9757.402724141736	0
0	62190	9757.474779357579	1
0	62193	9757.741778081747	2
0	62194	9758.365930727487	1
0	62199	9758.600646098984	2
0	62200	9759.074416501745	1
0	62203	9759.090611184856	0
0	62208	9759.177509987242	1
0	62211	9759.337073884108	2
0	62212	9759.360660787434	1
0	62215	9759.500561721584	0
0	62334	9775.037163376464	1
0	62335	9775.171228698804	0
0	62346	9775.788877923545	1
0	62347	9776.225623790759	0
0	62412	9787.770498633898	1
0	62413	9787.780382096147	0
0	62418	9787.821787711168	1
0	62419	9787.843238351208	0
0	62490	9796.621705882335	1
0	62491	9796.816154003684	0
0	62556	9810.550083706783	1
0	62559	9810.969096338515	2
0	62560	9811.133409501069	1
0	62563	9811.442135246399	0
0	62634	9821.407254054807	1
0	62635	9821.938272436178	0
0	62646	9822.338620099111	1
0	62647	9822.395570568409	0
0	62700	9835.178009614411	1
0	62701	9835.212388607531	0
0	62718	9837.467959604422	1
0	62719	9837.543834235214	0
0	62754	9844.642479113273	1
0	62757	9844.768598630721	2
0	62758	9845.044989902756	1
0	62761	9845.642948590625	0
0	62922	9877.351203144968	1
0	62923	9877.743152602445	0
1	0	0	0
1	353	30.348153423639	1
1	354	30.656971215886	0
1	365	31.564937890041	1
1	372	31.783818486548	2
1	375	32.447205489663	1
1	378	32.772197420734	0
1	389	32.972232748951	1
1	390	33.747679608167	0
1	2073	171.521197253102	1
1	2076	171.757954650187	0
1	5591	472.330203750553	1
1	5592	472.370306088075	0
2	10	1.725676610603	0.929802106037
2	20	2.54030847581	0.488503213197
2	30	2.65495119078	1.756390802296
2	32	2.845417831144	0.242564081861
2	38	3.237050059004	0.052546202184
2	40	3.512851168737	1.691067648782
2	46	3.800191120368	0.159178070421
2	56	5.992529992282	0.584501713426
2	58	6.140576051312	3.531591391375
2	64	7.282866613486	0.326941283611
2	66	7.396620464096	1.504990080292
2	76	7.909511309541	0.448984808114
2	94	8.612784075325	0.904184632137
2	96	8.670379550945	0.370420196618
2	98	9.313795967269	0.940151257477
2	108	10.408826756052	0.136107768298
2	110	11.327299636993	1.020446107956
2	120	12.356041501801	0.57753825541
2	122	13.057287108468	4.592481372552
2	124	13.154168824425	0.807001037446
2	130	14.319889554636	0.367482210595
2	136	15.139306274523	0.567969470855
2	154	16.473290106892	0.385417329234
2	156	16.534688600509	0.785089075538
2	162	16.771430047534	1.147704932001
2	164	16.871782943889	0.100751544569
2	166	16.953284798205	0.710682340047
2	176	18.086383922904	0.577525231828
2	178	18.230007365131	0.185582953827
2	188	19.259047181513	0.122024245368
2	190	19.553465929619	1.201761166162
2	196	19.818744372974	0.072639013646
2	206	20.004850998911	0.145922840501
2	208	20.192553318818	0.352593729609
2	214	20.712161030977	0.125720966037
2	220	21.260010441853	0.439701344377
2	230	22.317828543981	0.537971469137
2	232	22.697893429222	1.164456687107
2	242	23.779541154691	0.854545125147
2	248	24.039152034534	0.094105103198
2	258	25.002884119603	0.529417065744
2	264	25.309838190209	0.168683459416
2	266	25.46423048012	2.093715955525
2	272	25.79408153572	0.22170201431
2	281	26.16145860562	1.750106842227
2	291	26.503107572389	0.694521344896
2	294	26.522699150596	0.197122270392
2	296	26.605553478054	0.353801301574
2	298	26.629489385506	0.682874469585
2	316	27.609138141355	0.90528390465
2	326	28.233222319529	0.952043772017
2	328	28.766477994759	1.596473321027
2	338	29.339329644339	0.481558209375
2	355	30.656971215886	0.879177666664
2	358	31.000371474923	0.652218051284
2	374	31.854508498778	0.23000697887
2	376	32.447205489663	4.824090315219
2	379	32.772197420734	1.355971799945
2	382	32.784495541322	1.000677054774
2	391	33.747679608167	0.877591740741
2	394	33.995503981608	2.430566091567
2	404	34.755512537346	1.783279788395
2	410	35.008085316771	4.95001475907
2	416	35.433376902235	0.641325234
2	418	35.475982498412	0.051594233781
2	420	35.765386837465	1.052660650396
2	422	36.398485597932	1.786794186172
2	424	36.875223987461	7.72537201923
2	426	37.469006109869	10.080192454201
2	428	38.262018963379	10.462990243509
2	434	38.761731089974	0.299973443321
2	440	39.204486664467	0.018171115332
2	450	39.681675337987	0.291439194433
2	459	39.985332414536	0.22270973096
2	465	40.313155556718	0.422476107831
2	478	40.896592319992	0.654736781724
2	481	40.929741020733	0.56149684604
2	484	41.011956759468	0.481395938181
2	486	41.051938744774	0.300993621219
2	488	41.375997504035	1.945785061423
2	498	43.404357182749	0.74955916446
2	500	43.709217632247	13.4780196184
2	518	44.256477167894	1.001620261254
2	520	44.474110688849	0.640123143495
2	526	44.994383596822	0.162670207765
2	532	45.107409010542	0.008460675598
2	534	45.108757517266	0.867704823396
2	536	45.333745617098	1.242791178488
2	542	46.287270468426	37.802039144111
2	544	46.428676442615	2.286274057163
2	554	47.145103434945	1.662594885902
2	560	47.520957047896	0.937602588762
2	562	47.634728179614	0.153758861881
2	579	48.076223546387	0.253600061628
2	582	48.115100049318	0.090126125992
2	584	48.307088994409	0.261802612287
2	586	48.708936642625	0.724317659821
2	596	49.01025538037	0.142507355607
2	598	49.631229294189	0.758774728934
2	612	50.311400771639	0.306312064412
2	614	50.40970119213	0.28395207674
2	616	50.419281781253	0.608254326718
2	626	52.073776979414	0.453909425929
2	632	52.603768549342	1.269921968365
2	646	54.223116267762	0.569803981766
2	652	54.291644249117	0.916792857017
2	654	54.511645742342	1.110753449237
2	656	54.515620739589	2.037360218275
2	670	56.801330093599	0.111173982626
2	676	57.323975324462	0.265361248308
2	678	57.434003222162	0.728409279282
2	684	58.275402156035	3.458705924919
2	690	58.656082854438	0.258669428463
2	696	58.905148493379	1.012753815159
2	698	58.927405701903	0.187869421203
2	708	61.292257333552	1.682185226526
2	710	61.325988091436	0.799075269393
2	712	61.380624935618	7.156552731954
2	722	62.125836442657	0.380933885648
2	728	62.571730638747	0.131028620838
2	730	62.676347151411	0.970051395723
2	736	63.450284742924	0.452079718435
2	746	64.899010244078	0.868008208944
2	748	65.137509887566	18.412824714871
2	750	65.162092262758	0.57969423749
2	764	65.736002741858	0.169832366291
2	770	66.086415849743	0.571614944068
2	780	66.66731985256	1.133139165537
2	790	67.253913021585	0.048461377288
2	792	67.295774972007	0.097692388645
2	798	67.480388813474	1.244681285883
2	804	67.699214376698	1.053723802475
2	806	67.736981774207	0.393325212397
2	808	67.960951769421	0.401275992879
2	814	68.218328110923	0.030783076522
2	824	69.390041852978	0.348417082934
2	830	69.637454987718	0.125040747489
2	840	70.153171553977	0.076146812627
2	842	70.189562932071	0.092088553367
2	844	70.189672594489	1.736267739641
2	850	70.729464768787	4.836356865894
2	856	71.399518135991	0.271409321901
2	862	72.730697163815	0.385038429773
2	868	73.887689619806	0.534666148491
2	874	74.038997229769	0.0524409178
2	880	74.279676047121	3.724028784459
2	882	74.30934178357	0.217172827972
2	888	75.140159322602	0.57011635595
2	902	76.792462628835	0.019141456442
2	904	77.478409998134	1.65575950657
2	906	77.786539730556	1.175088644875
2	916	79.067824865582	0.091269300941
2	918	79.154188953108	0.354958963612
2	928	80.687433716368	0.754911727805
2	930	81.065698945941	1.000993247763
2	936	82.213636023832	0.265001439068
2	942	82.723752920675	0.135711909174
2	948	83.46033008023	0.030408106997
2	958	83.900665353609	0.233636283205
2	964	84.443163418651	0.49037141533
2	970	84.603812372134	0.046721296965
2	976	85.089923559082	0.227455922396
2	978	85.620277105493	2.024923419402
2	984	85.852516268374	0.015090989393
2	990	87.006405027475	0.131164654583
2	1003	89.535714651377	0.723897040994
2	1014	89.920537159278	0.373151288393
2	1016	90.228860327388	0.959006664568
2	1018	90.265906718352	1.442305876051
2	1020	90.340895311254	0.60521446515
2	1038	90.672911502444	0.093759475601
2	1040	90.705728555693	0.178046556713
2	1046	90.844392976496	0.372581030405
2	1048	90.909146169253	0.311298671989
2	1062	92.61924916148	1.868427954399
2	1064	92.630242233032	0.453982013662
2	1074	93.60041677179	2.596089859566
2	1079	93.774013712127	0.346599884769
2	1082	93.799855165025	0.192483996115
2	1088	94.160472635847	0.765415613134
2	1102	95.006005299832	0.155483902485
2	1104	95.141076692018	1.080873815888
2	1110	95.944063358542	1.022936845731
2	1116	97.018419771002	2.439566443997
2	1126	97.670410991094	1.797454770741
2	1128	97.890745232323	1.250709357398
2	1134	97.97585967996	0.4039900267
2	1136	98.065132585587	0.119376436424
2	1142	98.579420578406	0.125799306556
2	1148	98.812575479668	0.123429634399
2	1158	99.196017387014	0.300839493262
2	1160	99.59988072107	0.758680897873
2	1166	100.799371190815	9.371387177234
2	1178	101.485338848052	0.57056895143
2	1181	101.51522932951	0.342446668948
2	1184	101.544265510568	0.077975198083
2	1194	101.890001464325	0.334556861845
2	1196	101.997764667254	1.757239340268
2	1210	102.606061953572	0.480719785786
2	1222	102.990746318557	0.390987860438
2	1229	103.559515571327	0.736801024561
2	1232	103.646078500174	1.915803085078
2	1234	103.761906261893	0.96418006844
2	1240	104.124693344282	1.232361126442
2	1250	104.787688344408	0.840654299345
2	1252	104.881365577191	0.627101635045
2	1254	105.475970361933	3.372025152443
2	1264	106.828520414799	0.304416456869
2	1270	107.930297430033	0.073798016446
2	1272	107.953054065391	1.184459085418
2	1282	108.292280021175	0.130175705774
2	1284	109.249753177748	1.066781643737
2	1286	109.341615496497	6.045812183352
2	1304	110.094809791947	0.353315725369
2	1306	110.122280027341	0.518925037745
2	1308	110.45367721367	0.366683836584
2	1314	110.629045811768	4.9816706e-005
2	1316	111.468865757819	2.113059385286
2	1326	111.956887252394	0.336386964435
2	1328	112.142222128444	0.277085414524
2	1334	112.323314078888	7.607160232729
2	1336	113.26759320923	1.082881840437
2	1350	114.088953116987	0.304522306354
2	1352	114.48112206935	0.594452771774
2	1354	114.706473414446	1.025151885606
2	1364	115.527077191112	0.234576116439
2	1366	116.448979225029	1.399196644028
2	1372	117.898988807197	1.061373326971
2	1382	118.338338148953	0.188214675761
2	1400	118.762169234475	0.319094302796
2	1410	119.595920571686	1.119015700154
2	1416	119.692905415209	0.519602818291
2	1418	119.745158069697	0.103178996802
2	1428	120.171649029052	1.668746412327
2	1430	120.654535067772	0.687339976901
2	1440	121.07836733937	2.841385987274
2	1442	121.394363871372	1.483268555845
2	1452	121.821472700975	0.173035296758
2	1458	122.191301743015	2.903035737253
2	1460	122.272252751689	0.311018459541
2	1466	122.887178849675	1.097099410663
2	1476	123.258212005185	0.206319892686
2	1482	123.365562777681	0.066670311636
2	1484	123.383145926869	0.91763170147
2	1490	123.416597745817	0.16224686962
2	1496	123.878115699478	0.027833662404
2	1502	124.563208565162	1.152381918581
2	1504	124.655604564116	0.68717150721
2	1506	124.810302923321	3.890389361838
2	1512	125.466571672518	0.048583839184
2	1526	126.891596268867	0.220678283378
2	1528	127.490609162077	0.691658233076
2	1530	127.543872641407	0.657813129148
2	1536	127.712795146748	0.023343871822
2	1542	128.684994278272	0.117327924628
2	1548	129.315749189506	0.30433924336
2	1558	129.691059045201	0.058601578308
2	1568	129.866107027956	0.111396292536
2	1570	130.374756161125	1.01782663127
2	1572	130.468171561003	0.730026920005
2	1578	132.02948596704	11.23460499548
2	1584	132.731157556708	0.894994802241
2	1594	133.3757034874	0.100221097543
2	1596	133.55241774536	0.607845236679
2	1610	134.467096053035	15.731668417925
2	1612	134.591519797514	0.646421832097
2	1618	134.932868774392	0.774505839578
2	1620	135.515348395404	0.839350669742
2	1622	136.147643236947	3.740373986007
2	1628	136.989328538276	0.221774239991
2	1634	137.58662645808	40.055212006245
2	1636	137.72683552477	0.546551359758
2	1646	138.554864831765	0.338901001028
2	1648	139.007831105093	1.055444387191
2	1658	141.531085749528	0.332921243318
2	1660	141.570718438211	1.131513296014
2	1662	142.696847290768	8.685657314658
2	1672	143.420063500793	0.616440231515
2	1678	143.896336419635	0.620491084063
2	1684	144.253888324731	0.108048108297
2	1686	144.729802734136	0.930715821491
2	1711	146.685425033057	1.335818234385
2	1713	147.04064161166	0.991374452302
2	1719	147.676080762105	1.364462036843
2	1721	147.74097946014	1.265176488746
2	1724	147.743007620801	0.616407307048
2	1730	147.865770579912	1.829828665382
2	1732	147.971542741246	0.156998949032
2	1738	149.09896449432	0.264233614151
2	1748	149.57402603294	0.279503834995
2	1750	149.618545522889	0.176798287631
2	1760	150.806157976376	0.115722213549
2	1762	150.94134565299	0.461443178367
2	1780	151.843460144769	0.421068151419
2	1782	151.875452019797	0.468970938976
2	1784	151.888343412784	0.378893968244
2	1786	153.14219724878	1.97381663378
2	1792	154.181929514636	0.777647180177
2	1798	155.595355870869	0.476965421345
2	1804	156.866819971063	0.222574669703
2	1814	157.947769780602	0.458991750464
2	1824	158.217325427093	0.323364514613
2	1845	158.592696725397	0.196751205561
2	1848	158.694334432951	0.137919002502
2	1850	158.774317834848	0.236246803619
2	1852	159.321909352015	1.343368947773
2	1858	159.43496095686	1.30328590116
2	1880	160.114166160842	0.282947270817
2	1890	160.810177458128	0.697434545632
2	1892	161.250881859004	2.749373801106
2	1894	161.262832623968	1.929946918062
2	1900	161.52418600013	0.050767041971
2	1902	161.543210538868	0.884809911605
2	1916	162.953971409739	3.462152524177
2	1921	163.019812379186	0.266311685923
2	1927	163.220029196274	0.44816460251
2	1930	163.236419830201	0.323587352022
2	1936	163.342235125285	0.273574403306
2	1938	163.52674874107	0.556949730424
2	1940	163.700551924911	0.371791595888
2	1950	164.263044987897	0.525081393932
2	1956	164.895245913168	0.957421128821
2	1966	165.399058417083	0.511353435368
2	1972	165.502267377685	0.081303519674
2	1981	165.861915579152	0.640807259062
2	1983	166.004178358194	0.876857322512
2	1986	166.119888844172	0.456121922032
2	1988	166.144702477443	0.53946345425
2	1990	166.501186118845	5.717742991174
2	2000	167.79733950984	0.939559217105
2	2002	168.004030918571	1.029321558528
2	2008	168.46422646731	0.098230942948
2	2014	168.542299352857	0.065177199103
2	2020	168.671188309318	0.00486770467
2	2030	169.392740174112	0.128927719244
2	2047	170.30731205129	0.755230800612
2	2054	170.399496153742	0.62794674217
2	2060	170.644787538117	0.827600077049
2	2062	170.948704197487	2.003475590498
2	2075	171.693307485701	0.267702175547
2	2077	171.757954650187	0.603208688918
2	2080	171.930121091496	0.408923838394
2	2082	172.060406230313	2.333203747905
2	2088	172.609727047532	0.322454245583
2	2090	173.151226369734	13.576545211253
2	2100	173.766969906394	0.406449180593
2	2106	174.010443507805	0.087097580187
2	2108	174.089942105524	0.765424209472
2	2114	174.714373003171	0.077642792752
2	2124	175.669466277175	0.943460194461
2	2130	175.792404742038	0.387421189752
2	2140	175.927183208748	0.197028785973
2	2142	175.947613663104	0.0795060084
2	2144	176.026580306758	0.156778844925
2	2146	176.236911917615	17.666449895924
2	2152	176.436093398286	0.069293410712
2	2158	177.00645422454	0.432469054715
2	2160	177.95030728409	7.607185517898
2	2166	178.965623836072	0.048398736154
2	2176	179.624145073855	19.955589368091
2	2178	179.69106909138	0.077955295002
2	2188	180.50772811907	0.80566599956
2	2190	181.175245738837	2.172614787457
2	2192	181.363984466012	1.048318136761
2	2198	181.652688065641	0.049059761314
2	2208	182.250628508637	0.500093021842
2	2210	182.433317563825	0.320486772632
2	2216	183.718079477149	0.433984991009
2	2230	184.500529320184	0.013721050215
2	2232	185.228082181155	1.133677053561
2	2238	185.67455596589	1.183069888276
2	2244	185.785551755475	0.008832992758
2	2254	186.084883069313	0.184291469805
2	2256	186.190297602201	0.238583791266
2	2258	186.813159431131	1.310904190418
2	2264	187.842160540359	0.350012818058
2	2270	188.490547082226	42.018594262477
2	2280	189.242265491408	0.092296703703
2	2282	189.406903851827	0.408009281982
2	2284	189.641430778558	1.536537611393
2	2290	190.635836150947	0.874809801956
2	2300	191.892075897992	0.085769313686
2	2302	191.942841209114	0.993969727422
2	2312	193.569792087421	0.044416191327
2	2322	195.279448084613	0.089299373835
2	2328	195.717636437791	0.502025586939
2	2338	196.140397027293	25.717196405157
2	2355	196.689571315926	0.183352576897
2	2358	196.753358102825	0.213267508554
2	2360	196.857309070341	0.65041871373
2	2362	197.1901180127	4.395149091311
2	2364	198.04740696558	2.683601691594
2	2374	198.907315113862	0.528091926012
2	2380	199.265788531146	0.447488357708
2	2394	199.942523280992	0.683068296824
2	2404	200.303991905413	0.57013943846
2	2406	200.839249314406	0.845551787277
2	2408	200.955894691316	1.679976423163
2	2410	201.342680314161	1.244050039704
2	2416	202.431311368697	0.048270639514
2	2422	203.053769588731	7.116979167902
2	2424	203.056383503248	0.051833625135
2	2430	203.691440382886	0.081456723133
2	2436	204.249201211812	0.243651951664
2	2453	204.788794926425	0.36946000997
2	2456	204.812791286219	0.359822448844
2	2473	205.313466009388	0.844768048238
2	2479	205.421985880427	0.393279545946
2	2482	205.448562471036	0.224955734985
2	2490	205.657969924313	0.268488226348
2	2493	205.719327427971	0.189370013051
2	2496	205.917072138058	1.646587940273
2	2498	206.05067712178	0.951468838938
2	2508	206.376990924555	0.25251833356
2	2510	206.45188319379	0.234460663636
2	2516	207.130126698846	0.042061411562
2	2518	207.718109166331	2.176042506349
2	2520	208.702321463992	9.221550928692
2	2522	208.759963581853	3.503352860746
2	2528	210.062565509017	0.185580860401
2	2538	211.293482781822	0.890467337446
2	2540	211.403483915769	0.822591713537
2	2550	212.109968954744	0.510859173705
2	2552	212.141470417973	0.413125134739
2	2562	212.460584196817	0.187530971559
2	2564	212.757116199619	16.2686221662
2	2566	213.149917915345	0.80933053321
2	2572	213.906052081424	0.036525828577
2	2582	214.72567501263	0.239606347242
2	2584	214.785094768925	0.575331296465
2	2594	216.074738631075	0.50246665453
2	2608	217.162539154714	1.307820466211
2	2610	217.295168193534	0.344256944022
2	2616	217.507040818465	0.502494110338
2	2626	218.007533848695	1.731364713601
2	2628	218.137388198817	0.296328708968
2	2630	218.367273189991	0.864559818841
2	2640	219.019774769042	1.206248365782
2	2646	219.049717587031	0.225619399245
2	2648	219.495709508004	0.45605089251
2	2650	220.112280825457	1.735322540268
2	2663	220.933370796728	0.298085945698
2	2666	221.259195450566	0.671009870591
2	2672	221.477261492502	0.148686763954
2	2678	222.062275162864	0.432790401873
2	2680	222.317943038147	1.417875913779
2	2686	223.478069284872	27.606044556833
2	2688	223.61303798906	0.597244971754
2	2698	226.553167974801	0.064519251592
2	2704	226.978652466911	0.138236358272
2	2706	227.908837007342	2.046336450019
2	2712	228.44903635569	0.233201030294
2	2722	229.107889032614	0.605144611834
2	2724	230.613781726804	1.99909276488
2	2738	231.913395926487	0.243259569879
2	2744	232.028658190511	0.399000956401
2	2750	233.163916114888	1.208313962626
2	2756	233.339221548705	0.498649462083
2	2758	233.395817884432	0.128252651085
2	2764	234.007535901013	0.421916122475
2	2770	234.132541759044	2.237067975912
2	2772	234.415080760171	0.35294516066
2	2789	235.556829621137	1.025815865998
2	2791	235.597353027508	0.350522754663
2	2794	235.768953096009	0.793678614846
2	2796	235.773013668279	0.337618671183
2	2806	236.24877734166	0.216832427687
2	2820	237.482363227303	1.206811552132
2	2826	237.866576128206	1.954103293219
2	2828	238.257082282444	0.397611100654
2	2834	239.231199499701	0.366612669339
2	2836	239.945469116775	2.700509926344
2	2842	240.488405190441	0.386020652194
2	2848	240.896635381445	0.012464047864
2	2854	242.354101129942	0.080571289413
2	2860	243.046550069672	0.12725380146
2	2866	244.091446610753	0.615359425515
2	2868	244.651953113422	8.104931471822
2	2886	247.471452204245	1.111211888448
2	2892	247.81288652931	0.851491567129
2	2902	248.514836079695	0.427805702677
2	2904	248.618510987473	1.071883308057
2	2918	249.171954496401	0.017540363657
2	2920	249.181387728014	0.037595904582
2	2922	249.492529091391	1.264753558944
2	2924	250.273874650129	1.612658041858
2	2934	252.273242729075	0.080365020284
2	2944	252.663894513131	0.149676501471
2	2946	252.808508418846	0.218470893624
2	2948	253.346723659392	1.945455045204
2	2954	253.844917035181	0.433646009415
2	2960	254.501301486223	7.119966819128
2	2970	254.895939626304	0.159420524206
2	2976	255.066410504197	0.012914022213
2	2990	255.793086485627	1.85970415545
2	2996	256.183726458857	0.616544363609
2	3002	256.285571726379	0.013440309755
2	3012	257.216407314261	0.199897636239
2	3018	257.439214439838	1.970682043102
2	3024	258.018904828522	3.158157195903
2	3026	258.147412975113	0.166154285616
2	3028	258.179483656761	11.144582317161
2	3030	259.129698473105	1.707462451216
2	3032	259.659101923186	3.905000605947
2	3046	260.201539918405	0.20019076573
2	3060	260.653082671472	0.359182917606
2	3062	260.761732724157	0.357317093689
2	3068	261.210462568139	0.37760590888
2	3078	261.994283260597	1.9802963884
2	3080	262.04984472608	2.085773456309
2	3086	263.090719919061	1.116819925549
2	3100	263.611034492161	0.397436418033
2	3102	263.943560986256	1.017411478483
2	3104	264.072524542379	0.917057862969
2	3110	264.42160056138	0.080242053679
2	3123	265.495906198803	4.891084106201
2	3129	265.694588964857	0.007123811856
2	3131	265.96218259844	0.504006770242
2	3138	266.065980821537	0.022349886972
2	3140	266.095939309558	0.970024104939
2	3142	266.270479142702	0.781601541493
2	3152	266.951958092775	0.224043984188
2	3154	267.244861380966	0.734933419963
2	3164	267.394274531024	3.82071619267
2	3166	267.509965778713	0.15011618231
2	3172	267.894817114264	0.628722905471
2	3182	268.379470087346	0.498841626072
2	3184	268.382921528298	11.790340112668
2	3186	268.410201615264	0.08548018645
2	3208	269.778688329268	0.171087345808
2	3210	270.034903342808	2.129661237463
2	3212	270.354857095575	1.056663123115
2	3218	270.580722573258	1.047122734293
2	3224	271.015087521522	1.734696919388
2	3226	271.112260810529	0.643945119555
2	3228	271.288088804879	0.443197238739
2	3238	271.711719127144	0.128792433171
2	3240	271.888989773174	0.303356204622
2	3254	274.416728896292	1.789250862919
2	3260	274.442086387284	0.897336556999
2	3266	274.740798494071	0.29050432773
2	3268	274.98351280785	0.550234265239
2	3274	276.034479748087	2.216379842465
2	3276	276.220347304933	0.577737364373
2	3286	277.337658246223	0.014765905582
2	3300	278.049991499389	0.941242763508
2	3306	278.525401195803	0.703695980794
2	3308	278.942214890161	0.434747721837
2	3310	278.950763861072	9.294201455219
2	3312	278.989249554311	1.259944346923
2	3326	279.602987946656	0.30902618857
2	3332	280.035012357854	0.387306868178
2	3338	280.265970300096	0.876724059138
2	3344	280.720355047032	1.479017911685
2	3350	281.267206425041	1.091356944643
2	3352	281.351115700691	0.198974197324
2	3362	282.334403882855	1.909039011161
2	3364	282.375755189179	0.259113924052
2	3370	282.653231526642	0.39334155773
2	3372	283.155631512922	27.029914440855
2	3374	283.480229390482	0.874844071632
2	3380	285.088735778564	0.42929797585
2	3386	286.061093280649	0.703051910989
2	3392	286.265787976559	0.064439323021
2	3398	287.551691444129	0.57080776176
2	3404	288.21815610586	0.304597019536
2	3410	289.570779928134	0.021963617063
2	3416	289.795980930001	0.111068524357
2	3426	292.30920681874	0.101276951741
2	3432	292.587088790986	0.342459853706
2	3434	292.691489705692	0.254765192263
2	3451	293.674196613039	0.744593331243
2	3453	293.790420264573	0.43387757147
2	3456	294.183944466931	1.184118026501
2	3458	294.245993168608	0.714540215409
2	3464	295.84161877962	0.135932919287
2	3474	296.375824672317	0.078836026415
2	3480	296.676075207005	0.204458764623
2	3482	296.693682320546	34.741411404253
2	3484	296.751788696683	0.782653824753
2	3490	298.044837419071	0.491119092205
2	3504	298.358172568155	0.224164653306
2	3522	299.150462461173	0.512492502484
2	3528	299.423103767021	1.209525697079
2	3530	299.691083306062	0.285252994038
2	3532	300.250752537724	1.897002322563
2	3538	300.856309243666	0.103851643106
2	3544	301.24865571575	2.445424586503
2	3550	302.316695441335	1.130396038896
2	3552	302.96904494827	0.666226972273
2	3562	303.058381549164	0.002793921128
2	3564	303.229098726001	0.193247091022
2	3574	303.853684141809	0.454785352436
2	3576	304.372208285065	0.523596127746
2	3582	304.487317178089	0.002601566404
2	3588	306.464905355216	7.724697670226
2	3590	306.716914461945	1.756989411475
2	3592	307.426472192915	8.748080656573
2	3602	309.213992116768	0.173464441577
2	3608	309.393692566471	0.545122793231
2	3614	309.452736899259	0.201239152501
2	3620	309.688289940635	0.184989589875
2	3630	310.737843377787	1.299836622673
2	3636	310.856605331165	0.464583109443
2	3638	310.939161971273	0.501281204164
2	3651	311.551464712381	0.510031763865
2	3657	311.878569465935	1.106613615767
2	3663	312.134565706136	0.370530520085
2	3665	312.161197106591	0.658138727422
2	3668	312.361372774495	1.317065697972
2	3670	312.610398289809	0.497577737782
2	3684	313.054686533138	0.393965510502
2	3690	313.767018534782	0.963074240665
2	3696	314.684436291626	0.463902795007
2	3698	314.878380305416	1.551952696922
2	3704	315.331383874032	0.034459917995
2	3718	316.338207338148	0.535019415029
[...]
2	60071	9417.225660668262	0.215725053606
2	60073	9417.892960583123	0.881467559153
2	60083	9418.625572528638	0.020854712349
2	60085	9419.211306889049	0.724790283744
2	60091	9421.69267907393	0.119208062939
2	60097	9422.434711670968	0.456671026551
2	60107	9423.070406183917	0.487528125863
2	60109	9423.503364054382	0.925479346192
2	60119	9425.010277042595	0.319481532104
2	60125	9425.614252806006	1.291869782794
2	60127	9426.185683858726	0.681950650719
2	60137	9428.321773628427	0.206198249022
2	60139	9428.324264499683	0.03882281252
2	60149	9431.008244862327	0.702915652815
2	60151	9431.18991569549	0.19096133891
2	60157	9433.876703974274	0.294707244556
2	60163	9435.463522104391	0.153557003458
2	60176	9436.082240530752	0.187121241078
2	60179	9436.104493310293	0.085815184371
2	60181	9436.758083213219	0.770067876003
2	60187	9438.115494039031	0.023509010116
2	60193	9439.228380456536	0.493399533371
2	60199	9439.850319406488	0.02560196448
2	60209	9442.406321320206	0.08415541742
2	60211	9442.486370193484	0.527557185097
2	60221	9444.897198009043	0.313943801171
2	60227	9445.061898864725	0.122325242018
2	60229	9445.080125600948	0.46895282964
2	60235	9447.078960138719	0.469314979237
2	60241	9448.580524468756	0.05205675484
2	60251	9451.823484874037	0.39758341764
2	60253	9452.252776677914	0.465889181519
2	60259	9453.304833680514	0.00274704821
2	60269	9458.309898441026	0.050709255298
2	60278	9458.849465841541	0.299126852025
2	60281	9458.933724996851	0.343644352053
2	60283	9459.845819341181	2.335302761633
2	60289	9460.03752866857	0.021776187278
2	60295	9460.513371763802	0.348138061629
2	60305	9461.107889544785	0.453359124837
2	60307	9461.161181477421	0.13663337449
2	60313	9462.118391640688	0.554531541786
2	60323	9464.637480725681	0.709170867901
2	60325	9465.565907139017	1.08256240286
2	60331	9467.287449784159	0.365192529694
2	60341	9468.941568743218	0.382497974394
2	60343	9469.188135124466	0.288855483581
2	60349	9469.670318727956	0.388182929935
2	60355	9469.758551279904	0.014627254362
2	60361	9471.108979265542	0.43454590521
2	60367	9472.309513276708	0.514030222556
2	60377	9478.152280260436	0.162315727586
2	60379	9478.506820229127	3.127544042711
2	60392	9480.004586127517	1.020860277658
2	60395	9480.265041032266	1.328657109423
2	60397	9480.284462138779	0.51260211036
2	60403	9481.069589393471	0.780818220624
2	60413	9481.174532826856	0.057784255168
2	60415	9481.462082697001	0.38633986123
2	60421	9486.615834782865	0.035372868954
2	60427	9486.787908197455	0.148801427225
2	60437	9487.13459462711	0.177099214971
2	60439	9487.354969774423	0.322617154667
2	60445	9488.108672426157	0.283106714669
2	60451	9488.3875315142	0.128381592297
2	60457	9489.27043014161	0.540796729482
2	60463	9492.194940254595	1.908615448493
2	60473	9492.841633462718	0.030533403142
2	60475	9493.10108642778	0.471144983024
2	60481	9493.363960108141	0.225775887336
2	60491	9493.956064070444	0.177839937355
2	60493	9493.984252215801	0.086251183181
2	60499	9494.461114490425	0.074476366122
2	60505	9494.874643893626	0.128343445774
2	60515	9497.6669619916	0.148605491354
2	60517	9497.72526610863	0.428222486828
2	60527	9499.09244186959	0.053573826994
2	60533	9500.164017845497	0.142563329096
2	60535	9500.5409758542	1.745317865586
2	60541	9501.105936255024	0.21223006557
2	60547	9501.552204004881	0.04467130651
2	60557	9503.627052815429	0.169806364658
2	60559	9504.051637394304	0.84634196504
2	60565	9504.369967823215	0.264011606599
2	60578	9509.354719868556	1.00547014223
2	60584	9509.532574264977	0.394915778361
2	60587	9509.542098585557	0.05756585042
2	60593	9509.656300313261	0.039599755012
2	60595	9510.337087434659	2.190274367452
2	60601	9512.020835266305	0.496338046959
2	60607	9512.908925413543	0.522438973302
2	60613	9513.536793698254	0.285590291825
2	60619	9514.14221190295	0.102814675308
2	60625	9514.643037398349	0.399725423177
2	60635	9516.151292316689	1.067183919757
2	60637	9516.263168327639	1.083221700807
2	60647	9516.430730474179	0.103059454048
2	60649	9516.472822925696	0.092323567328
2	60655	9516.742854205718	0.152681267668
2	60661	9517.118807021804	0.180185494404
2	60667	9517.334041480145	0.068399201373
2	60683	9519.628615624248	0.691115767608
2	60686	9519.709530220821	0.355867579498
2	60689	9519.723169354265	0.446342294507
2	60691	9519.764622057891	0.340555523872
2	60697	9520.713486286085	0.161529355092
2	60703	9521.224472736919	0.171323791527
2	60709	9521.336014019627	0.0636958237
2	60719	9521.874838188305	0.334611311959
2	60721	9521.912892663876	0.169354694911
2	60727	9522.462030546408	0.363622581738
2	60733	9522.832744841954	0.031424714304
2	60739	9526.966504525483	0.612684603832
2	60749	9528.559372809536	0.446010439968
2	60751	9528.877184785573	0.953193606705
2	60757	9529.813426985695	0.076270716628
2	60763	9531.436729156552	0.461377672433
2	60769	9533.401557675302	0.063887966983
2	60775	9533.975147403138	0.067067068375
2	60781	9536.427723849344	0.501495088007
2	60787	9537.176284184104	0.052428276523
2	60793	9537.48389933007	0.041087264435
2	60799	9538.101599701511	0.164858209002
2	60805	9539.798091012458	0.038231914874
2	60815	9542.129123359192	0.438793834056
2	60817	9542.423734663438	1.015113048817
2	60823	9543.787613474256	0.287723650904
2	60829	9546.708359636394	0.294187107889
2	60839	9549.304113759802	0.788094907191
2	60841	9549.57069715673	0.574562885872
2	60847	9550.019991472835	0.244799570967
2	60853	9552.2880788691	0.642339841672
2	60863	9554.149852591356	0.009128898108
2	60869	9554.804774742914	1.898843722075
2	60878	9555.544553789535	0.124338823697
2	60881	9555.778011900553	1.301463710608
2	60890	9556.494095714125	1.017880481426
2	60896	9556.905065089921	1.076241784541
2	60899	9557.495371716355	1.439912694637
2	60901	9557.731681952994	1.186808820061
2	60907	9558.00954995869	0.124389396216
2	60913	9558.218292275208	0.031295092109
2	60919	9558.519190636303	0.135064699936
2	60925	9560.711088043741	0.481576020008
2	60935	9563.399497515526	0.703728267843
2	60941	9563.576261686308	0.289510807795
2	60950	9565.237532726268	1.670409296959
2	60953	9565.642183921529	1.784218907608
2	60959	9566.380239594204	0.362384421985
2	60961	9566.568712140728	2.172584757885
2	60967	9566.884011102393	0.041802245119
2	60973	9568.082477513246	0.379091036885
2	60983	9571.821457053088	0.294181447441
2	60985	9571.880288315051	0.272154873062
2	60995	9573.159717376076	0.254423715122
2	60997	9573.195766872287	0.943250901375
2	61003	9573.764588017561	0.051916377069
2	61019	9575.596589215422	1.515034764239
2	61022	9575.602072023	1.705549368266
2	61025	9575.776932507235	1.158467561897
2	61027	9577.032142798394	1.481721933005
2	61033	9577.351231104493	0.119684587036
2	61039	9578.217120137935	0.297375760684
2	61045	9582.251502194786	0.007450781885
2	61051	9582.804206929587	0.529251859857
2	61061	9583.627961531025	0.725895517895
2	61063	9584.163201052386	0.618862149877
2	61069	9584.841012024548	0.119646052997
2	61075	9585.075862491583	0.044705004144
2	61085	9587.221428029896	0.068679530399
2	61091	9587.394846365916	0.754580553116
2	61093	9587.83295311156	0.580204818519
2	61103	9589.236747208343	0.962835421965
2	61105	9589.29121604878	1.044051954883
2	61115	9589.636374912866	0.100853471929
2	61121	9590.849793790213	1.302057751662
2	61123	9591.313550005448	0.857813273138
2	61129	9592.697996369495	0.195153782731
2	61135	9593.846740678708	0.145216513295
2	61145	9595.502181309848	0.821576347524
2	61147	9595.538475676426	0.292604529072
2	61153	9596.012011930635	0.356373158707
2	61159	9596.133333648272	0.015190226685
2	61172	9597.525005625299	0.936816301959
2	61175	9598.123532553025	0.625865631695
2	61177	9598.243479421834	0.900515088494
2	61183	9600.052781168249	0.419043642556
2	61193	9601.128466577895	0.042460285343
2	61195	9601.374222421943	0.757318124928
2	61201	9605.552919602648	0.437672702255
2	61207	9607.334549390681	0.15944756565
2	61217	9608.912096421953	0.803516536747
2	61226	9609.179944467856	0.145951202802
2	61229	9609.310245356677	0.736850257975
2	61231	9609.517988102184	0.414959044904
2	61241	9609.805474158725	0.001158485487
2	61247	9610.979345041661	1.45697357057
2	61249	9611.601356613222	0.859140584477
2	61259	9612.594573266641	0.578807531412
2	61261	9612.733766434934	0.372089319386
2	61267	9613.460201270464	0.308541127878
2	61273	9614.703085583333	0.004588352257
2	61279	9616.452122581657	0.726671701341
2	61285	9617.203988166776	0.117281580598
2	61291	9618.157310986314	0.82460194681
2	61297	9618.653586528318	0.312882873529
2	61307	9618.942586969718	0.019635071983
2	61313	9619.252584306339	0.591972432319
2	61315	9619.50350887558	0.26456146439
2	61325	9620.352186986456	0.656704019018
2	61331	9620.717415852618	0.124872618918
2	61337	9621.175185525605	0.151915530695
2	61339	9621.735884995919	1.403747813293
2	61349	9623.551968754838	0.115952252766
2	61358	9623.82377441855	0.532352457516
2	61361	9623.896693958047	0.217683093963
2	61363	9624.35920556713	0.617582116399
2	61369	9625.075618681606	0.09997162291
2	61375	9626.049192194244	0.319775565317
2	61385	9626.658553608783	0.251052386353
2	61387	9626.969839023808	0.59735912822
2	61393	9629.737224319429	0.076704411885
2	61399	9632.678165571609	1.159250315893
2	61405	9633.273444678288	0.037650475064
2	61411	9635.916716295636	0.599739205692
2	61421	9637.154827438641	0.33715401426
2	61423	9637.933891977692	0.966049438999
2	61429	9640.540481378092	0.01505318694
2	61435	9643.496428681965	0.257156439959
2	61448	9644.835477649262	0.405224128527
2	61451	9645.068848336347	0.293268547662
2	61457	9645.673191234103	0.896499719802
2	61459	9646.028285737529	0.586331110991
2	61465	9647.362807376446	1.01746967281
2	61475	9651.629363777926	0.171138693201
2	61481	9651.777064926352	0.08320660882
2	61483	9652.180376737362	0.579533337894
2	61496	9654.20994272137	1.96040359269
2	61499	9654.343025918163	0.28773822749
2	61505	9655.435960159816	0.294896665342
2	61507	9655.804251304136	2.164585620996
2	61513	9657.583756175351	0.240510365853
2	61523	9659.101205773097	0.18214058466
2	61535	9660.325224716197	0.708297699322
2	61538	9660.327982718587	1.301782260729
2	61541	9661.061610791209	1.405950580086
2	61550	9661.614971077433	1.774620514942
2	61553	9661.652785598272	0.195769408518
2	61555	9661.743732282889	0.477989349808
2	61561	9662.378329175159	0.103024145844
2	61567	9663.389655357166	0.159894250694
2	61573	9663.500407227535	0.100289093213
2	61579	9665.887109253055	0.023977071662
2	61585	9666.150376163422	0.226961081619
2	61591	9668.546528829897	0.106907255845
2	61597	9668.805598474737	0.245164966266
2	61603	9671.100474575075	0.228718090745
2	61609	9671.501044218635	0.170594416583
2	61619	9673.484192478929	0.593852777684
2	61621	9673.667051653739	0.275444443089
2	61627	9675.119684282883	0.406984193628
2	61633	9676.958037800569	0.332150976678
2	61639	9677.385647547924	0.014395862924
2	61645	9678.104030166463	0.21838053282
2	61658	9679.289897049466	0.902327611337
2	61661	9679.304879783718	0.844127609366
2	61663	9679.526330291728	1.080504677677
2	61673	9680.409047812234	0.050568993163
2	61679	9680.85992520695	1.038272926529
2	61681	9681.002331804122	0.480047618549
2	61697	9684.773492855106	2.199094370514
2	61700	9684.984859270244	0.751566568339
2	61703	9685.528192990786	0.853313078005
2	61705	9685.666047585254	2.076168427523
2	61711	9686.087680448434	0.123142352606
2	61717	9687.044382130012	0.615551608234
2	61733	9689.391454909462	0.786193098172
2	61736	9689.416065780097	0.335017053399
2	61739	9689.603938100548	0.503383940255
2	61741	9690.348047134339	1.09091671645
2	61751	9691.173962812176	0.283598168852
2	61753	9692.719352064118	1.647043150756
2	61759	9693.369095305451	0.56528560952
2	61765	9699.765372103787	0.291556138462
2	61771	9700.061856279426	0.181329903172
2	61781	9700.662726995298	0.118250334978
2	61787	9700.987404943578	0.394139037617
2	61793	9701.304773937962	0.495260506107
2	61795	9701.305338761186	0.235679942949
2	61801	9702.230995637283	0.671158370909
2	61811	9703.921362034989	0.610427610001
2	61813	9704.115703925558	0.29525923262
2	61819	9705.664444280618	0.491416133172
2	61825	9706.220017957945	0.294962979679
2	61831	9707.055092129817	0.040436518911
2	61847	9707.93076933386	0.696434439157
2	61853	9708.304176091759	1.030256141591
2	61856	9708.537222607192	0.980050150429
2	61859	9708.634406764081	0.66479728542
2	61861	9708.725261385434	1.061357848889
2	61867	9709.175694045412	0.080976119293
2	61873	9710.809302189456	0.136216388122
2	61883	9711.649059483813	0.460811339071
2	61885	9711.696541225957	0.206522676975
2	61891	9713.550654473114	0.087060592005
2	61897	9714.366860417881	0.069636944057
2	61903	9715.941107956812	1.003521769913
2	61909	9717.170443104939	0.013290919145
2	61915	9717.849307727346	0.264732257611
2	61921	9718.36232926887	0.251980003054
2	61931	9718.968079829002	0.417693777375
2	61933	9719.108857022762	0.700849982962
2	61939	9719.954540837128	0.558098640393
2	61945	9722.810854796511	0.871765037805
2	61951	9723.68610358286	0.700607837431
2	61957	9724.167523229364	0.091798683552
2	61963	9726.420572497336	0.389930334815
2	61969	9727.5032805916	0.268262054964
2	61975	9728.873297484603	1.166769491607
2	61985	9729.618687066449	0.285955882031
2	61987	9730.774334391198	1.309217021794
2	61993	9731.548089216439	0.031387185639
2	61999	9732.295522663054	0.06722050107
2	62005	9733.036054860486	0.018487819214
2	62011	9736.170249825629	0.592937030787
2	62021	9737.004996066406	0.279839072942
2	62027	9737.363363192405	0.265249085681
2	62029	9738.325243721948	1.518693917408
2	62039	9738.507611216163	0.168976127956
2	62045	9738.876354289053	0.439972903759
2	62051	9739.639955537908	0.900715141956
2	62053	9739.692084540786	0.646744051885
2	62063	9740.356200483077	0.027852609307
2	62069	9740.884071774377	0.608727379101
2	62071	9741.117392054517	0.365952922361
2	62081	9741.846499959491	0.539285041563
2	62087	9742.476457637556	0.479894720951
2	62093	9743.092543924104	0.337958771026
2	62095	9743.305800073737	1.922467543444
2	62101	9746.745065727225	0.456258373808
2	62107	9749.085406081427	0.728942010396
2	62113	9751.166409786172	0.142751609658
2	62123	9751.794570670868	0.29248558728
2	62125	9752.03009307085	0.690723687489
2	62131	9752.537273625946	0.017716434371
2	62137	9752.815201018495	0.070592349958
2	62150	9753.974136164615	0.128659232014
2	62153	9754.117395695363	0.489732584257
2	62159	9755.219754691372	1.306914954526
2	62161	9755.238714484885	0.729991841193
2	62171	9755.62471546265	0.00529029438
2	62180	9757.173449358835	1.652888811007
2	62186	9757.402724141736	0.985417648374
2	62195	9758.365930727487	1.37444181482
2	62201	9759.074416501745	1.788231794666
2	62204	9759.090611184856	1.348833103109
2	62213	9759.360660787434	0.76001468845
2	62216	9759.500561721584	2.025782364005
2	62219	9759.725742614308	0.548232627066
2	62225	9760.054353410523	0.717279526415
2	62227	9760.777859752826	0.79709952094
2	62233	9761.169794099888	0.041312488544
2	62239	9761.813673306224	0.157016961431
2	62249	9762.56305996504	0.310811900884
2	62251	9762.595637242613	0.664073106837
2	62257	9763.429213910869	0.12886048626
2	62263	9764.855174159304	0.306889709371
2	62269	9768.926111318176	0.861702008765
2	62275	9769.39129043807	0.111146734533
2	62285	9770.499481113429	0.389549876538
2	62291	9771.072961464636	1.244782594361
2	62293	9771.15861916022	0.283746600231
2	62299	9772.275512531646	0.103944276347
2	62309	9772.453494538407	0.157958133069
2	62311	9772.572983218548	0.215774368608
2	62321	9773.383655173626	0.772639616643
2	62323	9773.484592871859	0.33014703081
2	62336	9775.171228698804	0.907460475383
2	62339	9775.19077682123	0.936194285303
2	62348	9776.225623790759	0.844737413329
2	62351	9776.243466990802	0.454589067257
2	62357	9776.505735171056	0.149055634399
2	62363	9777.117052588507	0.144140996376
2	62365	9777.251304485824	2.21414110936
2	62371	9777.533869457204	0.04716024652
2	62377	9777.686293866087	0.108134617027
2	62383	9778.334647959584	0.583154195572
2	62389	9778.506125382193	0.074678279638
2	62395	9779.51827530928	0.598160621927
2	62401	9784.760461733798	0.126006813215
2	62414	9787.780382096147	1.677904149885
2	62420	9787.843238351208	0.866447969304
2	62423	9788.01639917048	0.245900536582
2	62425	9788.697913540722	0.876125829554
2	62431	9789.237944070972	0.286884229173
2	62441	9791.005096004992	0.495173409828
2	62443	9791.006435320886	1.221976829996
2	62449	9792.107309389583	0.14305047678
2	62455	9793.519614196302	0.027541606454
2	62461	9793.902154726084	0.165854546968
2	62467	9794.711217885563	0.770780853339
2	62477	9795.679413445238	0.661147041572
2	62479	9795.984908258367	0.564966036193
2	62492	9796.816154003684	0.744255308732
2	62495	9797.691692281988	1.665185722408
2	62497	9798.07330304265	1.451597160315
2	62503	9799.9147929783	0.448375512388
2	62509	9800.749519959837	0.119412034543
2	62515	9802.610913766878	0.269304766693
2	62521	9803.641655377617	0.312461775922
2	62527	9804.337992899521	0.129061270738
2	62533	9807.805444334062	0.061042332886
2	62539	9809.611754751302	1.194569053225
2	62549	9810.266047815039	0.286775420459
2	62561	9811.133409501069	0.890938245581
2	62564	9811.442135246399	0.892051539616
2	62567	9811.515215240854	1.165202059297
2	62569	9811.552583747634	0.583487409119
2	62575	9813.205071458046	0.328023819099
2	62581	9815.301640187616	0.222874565215
2	62587	9816.487430010649	0.510641947196
2	62593	9817.311453145016	0.305737169736
2	62599	9818.261172710539	0.76940657503
2	62605	9818.646506466312	0.047228756801
2	62611	9819.166115062228	0.049128177645
2	62617	9820.381588078455	0.327931422171
2	62623	9821.178719638342	0.357601650168
2	62636	9821.938272436178	0.661815142094
2	62639	9822.102716696522	0.91356443519
2	62648	9822.395570568409	0.988316513602
2	62651	9822.431736803004	0.093116703893
2	62657	9822.97476872996	0.712070551978
2	62659	9823.173390200416	0.231362025864
2	62665	9825.933219582579	0.697953132999
2	62671	9826.385052186667	0.275981846794
2	62681	9830.494567294115	0.288273473731
2	62687	9831.451422509469	0.195553874253
2	62689	9831.817081118111	1.950297291323
2	62702	9835.212388607531	0.797048931525
2	62705	9835.4350482919	1.449575415497
2	62707	9835.678558377572	0.500548763161
2	62720	9837.543834235214	0.487340107998
2	62723	9837.717332170872	0.24937256645
2	62725	9837.732382776168	0.273417030512
2	62731	9842.462371077298	0.36643131734
2	62741	9842.876569880688	0.259547776675
2	62743	9843.004431584631	0.271465378801
2	62759	9845.044989902756	0.586982732382
2	62762	9845.642948590625	1.000469477352
2	62765	9846.248908329632	1.480309698911
2	62767	9846.496197906415	2.431321464195
2	62773	9847.811725423529	0.737370915781
2	62779	9852.196887113543	0.122508555022
2	62785	9853.340662522312	0.768843882976
2	62791	9854.205195342076	0.190560204199
2	62797	9855.301686798434	0.225040338819
2	62807	9855.690136991582	0.01693244744
2	62809	9855.823312278437	0.20027949041
2	62819	9856.668793383523	0.468923493719
2	62821	9857.826696522448	1.597124169803
2	62827	9859.355003554017	0.083830070513
2	62837	9860.809222589993	0.145759641858
2	62839	9860.99948578165	1.201715953909
2	62845	9863.529034995975	0.039837615072
2	62851	9864.43836115395	0.091083887938
2	62857	9864.872544145171	0.336127413665
2	62867	9867.823945250181	0.258992389962
2	62869	9867.907179437743	0.134045682314
2	62875	9868.242719161445	0.332451935383
2	62881	9868.491239848592	0.130847798697
2	62887	9869.029900377942	0.098842744726
2	62893	9873.234437754945	0.514790355384
2	62899	9874.080964500597	0.553757642926
2	62905	9875.307894363463	0.141611686943
2	62911	9876.667325407896	0.035775596869
2	62924	9877.743152602445	0.519477451154
2	62927	9878.294354829778	0.94315168481
2	62929	9878.525954642821	1.37986189394
2	62935	9882.544731470792	0.271278961023
2	62941	9884.518089048251	0.278914567536
2	62947	9885.080388117034	0.416996415167
2	62953	9886.468904476015	0.017066123584
2	62959	9889.300605302709	0.547507052717
2	62965	9892.148071232776	0.825878810349
2	62975	9894.331393236468	0.722044897412
2	62977	9894.545924295376	1.14264105254
2	62987	9895.481790099574	0.295156167643
2	62989	9895.869374325184	0.625497692181
2	62995	9897.543138727808	0.656644543398
2	63001	9897.984712487689	0.238051025503

